
<edges>
	<edge id="0:2" from="0" to="2" type="uMajor" /> 
	<edge id="0:1" from="0" to="1" type="uMajor" />
	<edge id="1:5" from="1" to="5" type="uMinor" /> 
	<edge id="1:3" from="1" to="3" type="uMajor" /> 
	<edge id="3:7" from="3" to="7" type="uMajor" /> 
	<edge id="5:6" from="5" to="6" type="uMinor" />
	<edge id="2:8" from="2" to="8" type="uMajor" />
	<edge id="0:9" from="0" to="9" type="uMinor" />
	<edge id="9:10" from="9" to="10" type="uMinor" /> 

	<edge id="2:0" to="0" from="2" type="uMajor" /> 
	<edge id="1:0" to="0" from="1" type="uMajor" />
	<edge id="5:1" to="1" from="5" type="uMinor" /> 
	<edge id="3:1" to="1" from="3" type="uMajor" /> 
	<edge id="7:3" to="3" from="7" type="uMajor" /> 
	<edge id="6:5" to="5" from="6" type="uMinor" />
	<edge id="8:2" to="2" from="8" type="uMajor" /> 
	<edge id="9:0" to="0" from="9" type="uMinor" />
	<edge id="10:9" to="9" from="10" type="uMinor" /> 
</edges>
