<connections>
    	<connection from="0:1" to="1:3" fromLane="0" toLane="0"/>
    	<connection from="0:1" to="1:3" fromLane="1" toLane="1"/>
	<connection from="0:1" to="1:5" fromLane="1" toLane="0"/>
	<connection from="5:1" to="1:0" fromLane="0" toLane="0"/>
	<connection from="5:1" to="1:0" fromLane="0" toLane="1"/>
	<connection from="5:1" to="1:3" fromLane="0" toLane="0"/>
	<connection from="5:1" to="1:3" fromLane="0" toLane="1"/>
	<connection from="3:1" to="1:0" fromLane="0" toLane="0"/>
	<connection from="3:1" to="1:0" fromLane="1" toLane="1"/>
	<connection from="3:1" to="1:5" fromLane="0" toLane="0"/>
    	<connection from="1:3" to="3:7" fromLane="0" toLane="0"/> 
	<connection from="1:3" to="3:7" fromLane="1" toLane="1"/>
	<connection from="7:3" to="3:1" fromLane="0" toLane="0"/> 
	<connection from="7:3" to="3:1" fromLane="1" toLane="1"/>
	<connection from="2:0" to="0:1" fromLane="0" toLane="0"/> 
	<connection from="2:0" to="0:1" fromLane="1" toLane="1"/>
	<connection from="1:0" to="0:2" fromLane="0" toLane="0"/> 
	<connection from="1:0" to="0:2" fromLane="1" toLane="1"/>
	<connection from="6:5" to="5:1" fromLane="0" toLane="0"/>
	<connection from="1:5" to="5:6" fromLane="0" toLane="0"/>    
</connections>
