<connections>
	<connection from="5:1" to="1:0" fromLane="0" toLane="0"/>
	<connection from="5:1" to="1:0" fromLane="0" toLane="1"/>
	<connection from="5:1" to="1:3" fromLane="0" toLane="0"/>
	<connection from="5:1" to="1:3" fromLane="0" toLane="1"/>
	
	<connection from="9:0" to="0:1" fromLane="0" toLane="0"/>
	<connection from="9:0" to="0:1" fromLane="0" toLane="1"/>
	<connection from="9:0" to="0:2" fromLane="0" toLane="0"/>
	<connection from="9:0" to="0:2" fromLane="0" toLane="1"/>
</connections>
