<?xml version="1.0" encoding="UTF-8"?>

<!-- generated on Mon Aug 14 15:28:29 2017 by SUMO netconvert Version 0.30.0
<?xml version="1.0" encoding="UTF-8"?>

<configuration xmlns:xsi="http://www.w3.org/2001/XMLSchema-instance" xsi:noNamespaceSchemaLocation="http://sumo.dlr.de/xsd/netconvertConfiguration.xsd">

    <input>
        <node-files value="model.nod.xml"/>
        <edge-files value="model.edg.xml"/>
        <connection-files value="model.con.xml"/>
        <type-files value="model.typ.xml"/>
    </input>

    <output>
        <output-file value="model.net.xml"/>
    </output>

    <processing>
        <no-turnarounds value="true"/>
    </processing>

    <report>
        <verbose value="true"/>
    </report>

</configuration>
-->

<net version="0.27" xmlns:xsi="http://www.w3.org/2001/XMLSchema-instance" xsi:noNamespaceSchemaLocation="http://sumo.dlr.de/xsd/net_file.xsd">

    <location netOffset="0.00,300.00" convBoundary="0.00,0.00,500.00,300.00" origBoundary="0.00,-300.00,500.00,0.00" projParameter="!"/>

    <type id="district.1.30" priority="10" numLanes="1" speed="13.40"/>
    <type id="district.1.40" priority="10" numLanes="1" speed="17.90"/>
    <type id="district.2.30" priority="10" numLanes="2" speed="13.40"/>
    <type id="district.2.40" priority="10" numLanes="2" speed="17.90"/>
    <type id="district.3.30" priority="10" numLanes="3" speed="13.40"/>
    <type id="district.3.40" priority="10" numLanes="3" speed="17.90"/>
    <type id="district.default" priority="10" numLanes="1" speed="13.40"/>

    <edge id=":1_2_0_0" function="internal">
        <lane id=":1_2_0_0_0" index="0" speed="13.40" length="0.10" shape="50.00,154.95 50.00,154.95"/>
        <lane id=":1_2_0_0_1" index="1" speed="13.40" length="0.10" shape="50.00,151.65 50.00,151.65"/>
    </edge>
    <edge id=":1_2_0_2" function="internal">
        <lane id=":1_2_0_2_0" index="0" speed="13.40" length="0.10" shape="50.00,145.05 50.00,145.05"/>
        <lane id=":1_2_0_2_1" index="1" speed="13.40" length="0.10" shape="50.00,148.35 50.00,148.35"/>
    </edge>
    <edge id=":1_2_5_0" function="internal">
        <lane id=":1_2_5_0_0" index="0" speed="13.40" length="0.10" shape="100.00,154.95 100.00,154.95"/>
        <lane id=":1_2_5_0_1" index="1" speed="13.40" length="0.10" shape="100.00,151.65 100.00,151.65"/>
    </edge>
    <edge id=":1_2_5_2" function="internal">
        <lane id=":1_2_5_2_0" index="0" speed="13.40" length="0.10" shape="100.00,145.05 100.00,145.05"/>
        <lane id=":1_2_5_2_1" index="1" speed="13.40" length="0.10" shape="100.00,148.35 100.00,148.35"/>
    </edge>
    <edge id=":2_1_0_0" function="internal">
        <lane id=":2_1_0_0_0" index="0" speed="13.40" length="0.10" shape="145.05,250.00 145.05,250.00"/>
        <lane id=":2_1_0_0_1" index="1" speed="13.40" length="0.10" shape="148.35,250.00 148.35,250.00"/>
    </edge>
    <edge id=":2_1_0_2" function="internal">
        <lane id=":2_1_0_2_0" index="0" speed="13.40" length="0.10" shape="154.95,250.00 154.95,250.00"/>
        <lane id=":2_1_0_2_1" index="1" speed="13.40" length="0.10" shape="151.65,250.00 151.65,250.00"/>
    </edge>
    <edge id=":2_1_7_0" function="internal">
        <lane id=":2_1_7_0_0" index="0" speed="13.40" length="0.10" shape="145.05,200.00 145.05,200.00"/>
        <lane id=":2_1_7_0_1" index="1" speed="13.40" length="0.10" shape="148.35,200.00 148.35,200.00"/>
    </edge>
    <edge id=":2_1_7_2" function="internal">
        <lane id=":2_1_7_2_0" index="0" speed="13.40" length="0.10" shape="154.95,200.00 154.95,200.00"/>
        <lane id=":2_1_7_2_1" index="1" speed="13.40" length="0.10" shape="151.65,200.00 151.65,200.00"/>
    </edge>
    <edge id=":2_2_0_0" function="internal">
        <lane id=":2_2_0_0_0" index="0" speed="13.40" length="5.00" shape="145.05,158.05 144.86,156.69 144.28,155.72 143.31,155.14 141.95,154.95"/>
    </edge>
    <edge id=":2_2_0_1" function="internal">
        <lane id=":2_2_0_1_0" index="0" speed="13.40" length="16.10" shape="145.05,158.05 145.05,141.95"/>
        <lane id=":2_2_0_1_1" index="1" speed="13.40" length="16.10" shape="148.35,158.05 148.35,141.95"/>
    </edge>
    <edge id=":2_2_0_3" function="internal">
        <lane id=":2_2_0_3_0" index="0" speed="13.40" length="6.41" shape="148.35,158.05 148.96,153.81 150.05,151.98"/>
    </edge>
    <edge id=":2_2_0_16" function="internal">
        <lane id=":2_2_0_16_0" index="0" speed="13.40" length="9.23" shape="150.05,151.98 150.77,150.78 153.81,148.96 158.05,148.35"/>
    </edge>
    <edge id=":2_2_0_4" function="internal">
        <lane id=":2_2_0_4_0" index="0" speed="13.40" length="5.00" shape="158.05,154.95 156.69,155.14 155.72,155.72 155.14,156.69 154.95,158.05"/>
    </edge>
    <edge id=":2_2_0_5" function="internal">
        <lane id=":2_2_0_5_0" index="0" speed="13.40" length="16.10" shape="158.05,154.95 141.95,154.95"/>
        <lane id=":2_2_0_5_1" index="1" speed="13.40" length="16.10" shape="158.05,151.65 141.95,151.65"/>
    </edge>
    <edge id=":2_2_0_7" function="internal">
        <lane id=":2_2_0_7_0" index="0" speed="13.40" length="6.41" shape="158.05,151.65 153.81,151.04 151.98,149.95"/>
    </edge>
    <edge id=":2_2_0_17" function="internal">
        <lane id=":2_2_0_17_0" index="0" speed="13.40" length="9.23" shape="151.98,149.95 150.78,149.23 148.96,146.19 148.35,141.95"/>
    </edge>
    <edge id=":2_2_0_8" function="internal">
        <lane id=":2_2_0_8_0" index="0" speed="13.40" length="5.00" shape="154.95,141.95 155.14,143.31 155.72,144.28 156.69,144.86 158.05,145.05"/>
    </edge>
    <edge id=":2_2_0_9" function="internal">
        <lane id=":2_2_0_9_0" index="0" speed="13.40" length="16.10" shape="154.95,141.95 154.95,158.05"/>
        <lane id=":2_2_0_9_1" index="1" speed="13.40" length="16.10" shape="151.65,141.95 151.65,158.05"/>
    </edge>
    <edge id=":2_2_0_11" function="internal">
        <lane id=":2_2_0_11_0" index="0" speed="13.40" length="6.41" shape="151.65,141.95 151.04,146.19 149.95,148.02"/>
    </edge>
    <edge id=":2_2_0_18" function="internal">
        <lane id=":2_2_0_18_0" index="0" speed="13.40" length="9.23" shape="149.95,148.02 149.23,149.22 146.19,151.04 141.95,151.65"/>
    </edge>
    <edge id=":2_2_0_12" function="internal">
        <lane id=":2_2_0_12_0" index="0" speed="13.40" length="5.00" shape="141.95,145.05 143.31,144.86 144.28,144.28 144.86,143.31 145.05,141.95"/>
    </edge>
    <edge id=":2_2_0_13" function="internal">
        <lane id=":2_2_0_13_0" index="0" speed="13.40" length="16.10" shape="141.95,145.05 158.05,145.05"/>
        <lane id=":2_2_0_13_1" index="1" speed="13.40" length="16.10" shape="141.95,148.35 158.05,148.35"/>
    </edge>
    <edge id=":2_2_0_15" function="internal">
        <lane id=":2_2_0_15_0" index="0" speed="13.40" length="6.41" shape="141.95,148.35 146.19,148.96 148.02,150.05"/>
    </edge>
    <edge id=":2_2_0_19" function="internal">
        <lane id=":2_2_0_19_0" index="0" speed="13.40" length="9.23" shape="148.02,150.05 149.22,150.77 151.04,153.81 151.65,158.05"/>
    </edge>
    <edge id=":2_2_5_0" function="internal">
        <lane id=":2_2_5_0_0" index="0" speed="13.40" length="0.10" shape="200.00,154.95 200.00,154.95"/>
        <lane id=":2_2_5_0_1" index="1" speed="13.40" length="0.10" shape="200.00,151.65 200.00,151.65"/>
    </edge>
    <edge id=":2_2_5_2" function="internal">
        <lane id=":2_2_5_2_0" index="0" speed="13.40" length="0.10" shape="200.00,145.05 200.00,145.05"/>
        <lane id=":2_2_5_2_1" index="1" speed="13.40" length="0.10" shape="200.00,148.35 200.00,148.35"/>
    </edge>
    <edge id=":2_2_7_0" function="internal">
        <lane id=":2_2_7_0_0" index="0" speed="13.40" length="0.10" shape="145.05,100.00 145.05,100.00"/>
        <lane id=":2_2_7_0_1" index="1" speed="13.40" length="0.10" shape="148.35,100.00 148.35,100.00"/>
    </edge>
    <edge id=":2_2_7_2" function="internal">
        <lane id=":2_2_7_2_0" index="0" speed="13.40" length="0.10" shape="154.95,100.00 154.95,100.00"/>
        <lane id=":2_2_7_2_1" index="1" speed="13.40" length="0.10" shape="151.65,100.00 151.65,100.00"/>
    </edge>
    <edge id=":2_3_0_0" function="internal">
        <lane id=":2_3_0_0_0" index="0" speed="13.40" length="0.10" shape="145.05,50.00 145.05,50.00"/>
        <lane id=":2_3_0_0_1" index="1" speed="13.40" length="0.10" shape="148.35,50.00 148.35,50.00"/>
    </edge>
    <edge id=":2_3_0_2" function="internal">
        <lane id=":2_3_0_2_0" index="0" speed="13.40" length="0.10" shape="154.95,50.00 154.95,50.00"/>
        <lane id=":2_3_0_2_1" index="1" speed="13.40" length="0.10" shape="151.65,50.00 151.65,50.00"/>
    </edge>
    <edge id=":3_2_0_0" function="internal">
        <lane id=":3_2_0_0_0" index="0" speed="13.40" length="0.10" shape="250.00,154.95 250.00,154.95"/>
        <lane id=":3_2_0_0_1" index="1" speed="13.40" length="0.10" shape="250.00,151.65 250.00,151.65"/>
    </edge>
    <edge id=":3_2_0_2" function="internal">
        <lane id=":3_2_0_2_0" index="0" speed="13.40" length="0.10" shape="250.00,145.05 250.00,145.05"/>
        <lane id=":3_2_0_2_1" index="1" speed="13.40" length="0.10" shape="250.00,148.35 250.00,148.35"/>
    </edge>
    <edge id=":3_2_5_0" function="internal">
        <lane id=":3_2_5_0_0" index="0" speed="13.40" length="0.10" shape="300.00,154.95 300.00,154.95"/>
        <lane id=":3_2_5_0_1" index="1" speed="13.40" length="0.10" shape="300.00,151.65 300.00,151.65"/>
    </edge>
    <edge id=":3_2_5_2" function="internal">
        <lane id=":3_2_5_2_0" index="0" speed="13.40" length="0.10" shape="300.00,145.05 300.00,145.05"/>
        <lane id=":3_2_5_2_1" index="1" speed="13.40" length="0.10" shape="300.00,148.35 300.00,148.35"/>
    </edge>
    <edge id=":4_1_0_0" function="internal">
        <lane id=":4_1_0_0_0" index="0" speed="13.40" length="0.10" shape="345.05,250.00 345.05,250.00"/>
        <lane id=":4_1_0_0_1" index="1" speed="13.40" length="0.10" shape="348.35,250.00 348.35,250.00"/>
    </edge>
    <edge id=":4_1_0_2" function="internal">
        <lane id=":4_1_0_2_0" index="0" speed="13.40" length="0.10" shape="354.95,250.00 354.95,250.00"/>
        <lane id=":4_1_0_2_1" index="1" speed="13.40" length="0.10" shape="351.65,250.00 351.65,250.00"/>
    </edge>
    <edge id=":4_1_7_0" function="internal">
        <lane id=":4_1_7_0_0" index="0" speed="13.40" length="0.10" shape="345.05,200.00 345.05,200.00"/>
        <lane id=":4_1_7_0_1" index="1" speed="13.40" length="0.10" shape="348.35,200.00 348.35,200.00"/>
    </edge>
    <edge id=":4_1_7_2" function="internal">
        <lane id=":4_1_7_2_0" index="0" speed="13.40" length="0.10" shape="354.95,200.00 354.95,200.00"/>
        <lane id=":4_1_7_2_1" index="1" speed="13.40" length="0.10" shape="351.65,200.00 351.65,200.00"/>
    </edge>
    <edge id=":4_2_0_0" function="internal">
        <lane id=":4_2_0_0_0" index="0" speed="13.40" length="5.00" shape="345.05,158.05 344.86,156.69 344.28,155.72 343.31,155.14 341.95,154.95"/>
    </edge>
    <edge id=":4_2_0_1" function="internal">
        <lane id=":4_2_0_1_0" index="0" speed="13.40" length="16.10" shape="345.05,158.05 345.05,141.95"/>
        <lane id=":4_2_0_1_1" index="1" speed="13.40" length="16.10" shape="348.35,158.05 348.35,141.95"/>
    </edge>
    <edge id=":4_2_0_3" function="internal">
        <lane id=":4_2_0_3_0" index="0" speed="13.40" length="6.41" shape="348.35,158.05 348.96,153.81 350.05,151.98"/>
    </edge>
    <edge id=":4_2_0_16" function="internal">
        <lane id=":4_2_0_16_0" index="0" speed="13.40" length="9.23" shape="350.05,151.98 350.78,150.78 353.81,148.96 358.05,148.35"/>
    </edge>
    <edge id=":4_2_0_4" function="internal">
        <lane id=":4_2_0_4_0" index="0" speed="13.40" length="5.00" shape="358.05,154.95 356.69,155.14 355.73,155.72 355.14,156.69 354.95,158.05"/>
    </edge>
    <edge id=":4_2_0_5" function="internal">
        <lane id=":4_2_0_5_0" index="0" speed="13.40" length="16.10" shape="358.05,154.95 341.95,154.95"/>
        <lane id=":4_2_0_5_1" index="1" speed="13.40" length="16.10" shape="358.05,151.65 341.95,151.65"/>
    </edge>
    <edge id=":4_2_0_7" function="internal">
        <lane id=":4_2_0_7_0" index="0" speed="13.40" length="6.41" shape="358.05,151.65 353.81,151.04 351.98,149.95"/>
    </edge>
    <edge id=":4_2_0_17" function="internal">
        <lane id=":4_2_0_17_0" index="0" speed="13.40" length="9.23" shape="351.98,149.95 350.77,149.23 348.96,146.19 348.35,141.95"/>
    </edge>
    <edge id=":4_2_0_8" function="internal">
        <lane id=":4_2_0_8_0" index="0" speed="13.40" length="5.00" shape="354.95,141.95 355.14,143.31 355.72,144.28 356.69,144.86 358.05,145.05"/>
    </edge>
    <edge id=":4_2_0_9" function="internal">
        <lane id=":4_2_0_9_0" index="0" speed="13.40" length="16.10" shape="354.95,141.95 354.95,158.05"/>
        <lane id=":4_2_0_9_1" index="1" speed="13.40" length="16.10" shape="351.65,141.95 351.65,158.05"/>
    </edge>
    <edge id=":4_2_0_11" function="internal">
        <lane id=":4_2_0_11_0" index="0" speed="13.40" length="6.41" shape="351.65,141.95 351.04,146.19 349.95,148.02"/>
    </edge>
    <edge id=":4_2_0_18" function="internal">
        <lane id=":4_2_0_18_0" index="0" speed="13.40" length="9.23" shape="349.95,148.02 349.22,149.22 346.19,151.04 341.95,151.65"/>
    </edge>
    <edge id=":4_2_0_12" function="internal">
        <lane id=":4_2_0_12_0" index="0" speed="13.40" length="5.00" shape="341.95,145.05 343.31,144.86 344.27,144.28 344.86,143.31 345.05,141.95"/>
    </edge>
    <edge id=":4_2_0_13" function="internal">
        <lane id=":4_2_0_13_0" index="0" speed="13.40" length="16.10" shape="341.95,145.05 358.05,145.05"/>
        <lane id=":4_2_0_13_1" index="1" speed="13.40" length="16.10" shape="341.95,148.35 358.05,148.35"/>
    </edge>
    <edge id=":4_2_0_15" function="internal">
        <lane id=":4_2_0_15_0" index="0" speed="13.40" length="6.41" shape="341.95,148.35 346.19,148.96 348.02,150.05"/>
    </edge>
    <edge id=":4_2_0_19" function="internal">
        <lane id=":4_2_0_19_0" index="0" speed="13.40" length="9.23" shape="348.02,150.05 349.23,150.77 351.04,153.81 351.65,158.05"/>
    </edge>
    <edge id=":4_2_5_0" function="internal">
        <lane id=":4_2_5_0_0" index="0" speed="13.40" length="0.10" shape="400.00,154.95 400.00,154.95"/>
        <lane id=":4_2_5_0_1" index="1" speed="13.40" length="0.10" shape="400.00,151.65 400.00,151.65"/>
    </edge>
    <edge id=":4_2_5_2" function="internal">
        <lane id=":4_2_5_2_0" index="0" speed="13.40" length="0.10" shape="400.00,145.05 400.00,145.05"/>
        <lane id=":4_2_5_2_1" index="1" speed="13.40" length="0.10" shape="400.00,148.35 400.00,148.35"/>
    </edge>
    <edge id=":4_2_7_0" function="internal">
        <lane id=":4_2_7_0_0" index="0" speed="13.40" length="0.10" shape="345.05,100.00 345.05,100.00"/>
        <lane id=":4_2_7_0_1" index="1" speed="13.40" length="0.10" shape="348.35,100.00 348.35,100.00"/>
    </edge>
    <edge id=":4_2_7_2" function="internal">
        <lane id=":4_2_7_2_0" index="0" speed="13.40" length="0.10" shape="354.95,100.00 354.95,100.00"/>
        <lane id=":4_2_7_2_1" index="1" speed="13.40" length="0.10" shape="351.65,100.00 351.65,100.00"/>
    </edge>
    <edge id=":4_3_0_0" function="internal">
        <lane id=":4_3_0_0_0" index="0" speed="13.40" length="0.10" shape="345.05,50.00 345.05,50.00"/>
        <lane id=":4_3_0_0_1" index="1" speed="13.40" length="0.10" shape="348.35,50.00 348.35,50.00"/>
    </edge>
    <edge id=":4_3_0_2" function="internal">
        <lane id=":4_3_0_2_0" index="0" speed="13.40" length="0.10" shape="354.95,50.00 354.95,50.00"/>
        <lane id=":4_3_0_2_1" index="1" speed="13.40" length="0.10" shape="351.65,50.00 351.65,50.00"/>
    </edge>
    <edge id=":5_2_0_0" function="internal">
        <lane id=":5_2_0_0_0" index="0" speed="13.40" length="0.10" shape="450.00,154.95 450.00,154.95"/>
        <lane id=":5_2_0_0_1" index="1" speed="13.40" length="0.10" shape="450.00,151.65 450.00,151.65"/>
    </edge>
    <edge id=":5_2_0_2" function="internal">
        <lane id=":5_2_0_2_0" index="0" speed="13.40" length="0.10" shape="450.00,145.05 450.00,145.05"/>
        <lane id=":5_2_0_2_1" index="1" speed="13.40" length="0.10" shape="450.00,148.35 450.00,148.35"/>
    </edge>

    <edge id="1_2_0-1_2_1" from="1_2_0" to="1_2_1" priority="10" type="district.2.30">
        <lane id="1_2_0-1_2_1_0" index="0" speed="13.40" length="50.00" shape="50.00,154.95 0.00,154.95"/>
        <lane id="1_2_0-1_2_1_1" index="1" speed="13.40" length="50.00" shape="50.00,151.65 0.00,151.65"/>
    </edge>
    <edge id="1_2_0-1_2_5" from="1_2_0" to="1_2_5" priority="10" type="district.2.30">
        <lane id="1_2_0-1_2_5_0" index="0" speed="13.40" length="50.00" shape="50.00,145.05 100.00,145.05"/>
        <lane id="1_2_0-1_2_5_1" index="1" speed="13.40" length="50.00" shape="50.00,148.35 100.00,148.35"/>
    </edge>
    <edge id="1_2_1-1_2_0" from="1_2_1" to="1_2_0" priority="10" type="district.2.30">
        <lane id="1_2_1-1_2_0_0" index="0" speed="13.40" length="50.00" shape="0.00,145.05 50.00,145.05"/>
        <lane id="1_2_1-1_2_0_1" index="1" speed="13.40" length="50.00" shape="0.00,148.35 50.00,148.35"/>
    </edge>
    <edge id="1_2_5-1_2_0" from="1_2_5" to="1_2_0" priority="10" type="district.2.30">
        <lane id="1_2_5-1_2_0_0" index="0" speed="13.40" length="50.00" shape="100.00,154.95 50.00,154.95"/>
        <lane id="1_2_5-1_2_0_1" index="1" speed="13.40" length="50.00" shape="100.00,151.65 50.00,151.65"/>
    </edge>
    <edge id="1_2_5-2_2_0" from="1_2_5" to="2_2_0" priority="10" type="district.2.30">
        <lane id="1_2_5-2_2_0_0" index="0" speed="13.40" length="41.95" shape="100.00,145.05 141.95,145.05"/>
        <lane id="1_2_5-2_2_0_1" index="1" speed="13.40" length="41.95" shape="100.00,148.35 141.95,148.35"/>
    </edge>
    <edge id="2_1_0-2_1_3" from="2_1_0" to="2_1_3" priority="10" type="district.2.30">
        <lane id="2_1_0-2_1_3_0" index="0" speed="13.40" length="50.00" shape="154.95,250.00 154.95,300.00"/>
        <lane id="2_1_0-2_1_3_1" index="1" speed="13.40" length="50.00" shape="151.65,250.00 151.65,300.00"/>
    </edge>
    <edge id="2_1_0-2_1_7" from="2_1_0" to="2_1_7" priority="10" type="district.2.30">
        <lane id="2_1_0-2_1_7_0" index="0" speed="13.40" length="50.00" shape="145.05,250.00 145.05,200.00"/>
        <lane id="2_1_0-2_1_7_1" index="1" speed="13.40" length="50.00" shape="148.35,250.00 148.35,200.00"/>
    </edge>
    <edge id="2_1_3-2_1_0" from="2_1_3" to="2_1_0" priority="10" type="district.2.30">
        <lane id="2_1_3-2_1_0_0" index="0" speed="13.40" length="50.00" shape="145.05,300.00 145.05,250.00"/>
        <lane id="2_1_3-2_1_0_1" index="1" speed="13.40" length="50.00" shape="148.35,300.00 148.35,250.00"/>
    </edge>
    <edge id="2_1_7-2_1_0" from="2_1_7" to="2_1_0" priority="10" type="district.2.30">
        <lane id="2_1_7-2_1_0_0" index="0" speed="13.40" length="50.00" shape="154.95,200.00 154.95,250.00"/>
        <lane id="2_1_7-2_1_0_1" index="1" speed="13.40" length="50.00" shape="151.65,200.00 151.65,250.00"/>
    </edge>
    <edge id="2_1_7-2_2_0" from="2_1_7" to="2_2_0" priority="10" type="district.2.30">
        <lane id="2_1_7-2_2_0_0" index="0" speed="13.40" length="41.95" shape="145.05,200.00 145.05,158.05"/>
        <lane id="2_1_7-2_2_0_1" index="1" speed="13.40" length="41.95" shape="148.35,200.00 148.35,158.05"/>
    </edge>
    <edge id="2_2_0-1_2_5" from="2_2_0" to="1_2_5" priority="10" type="district.2.30">
        <lane id="2_2_0-1_2_5_0" index="0" speed="13.40" length="41.95" shape="141.95,154.95 100.00,154.95"/>
        <lane id="2_2_0-1_2_5_1" index="1" speed="13.40" length="41.95" shape="141.95,151.65 100.00,151.65"/>
    </edge>
    <edge id="2_2_0-2_1_7" from="2_2_0" to="2_1_7" priority="10" type="district.2.30">
        <lane id="2_2_0-2_1_7_0" index="0" speed="13.40" length="41.95" shape="154.95,158.05 154.95,200.00"/>
        <lane id="2_2_0-2_1_7_1" index="1" speed="13.40" length="41.95" shape="151.65,158.05 151.65,200.00"/>
    </edge>
    <edge id="2_2_0-2_2_5" from="2_2_0" to="2_2_5" priority="10" type="district.2.30">
        <lane id="2_2_0-2_2_5_0" index="0" speed="13.40" length="41.95" shape="158.05,145.05 200.00,145.05"/>
        <lane id="2_2_0-2_2_5_1" index="1" speed="13.40" length="41.95" shape="158.05,148.35 200.00,148.35"/>
    </edge>
    <edge id="2_2_0-2_2_7" from="2_2_0" to="2_2_7" priority="10" type="district.2.30">
        <lane id="2_2_0-2_2_7_0" index="0" speed="13.40" length="41.95" shape="145.05,141.95 145.05,100.00"/>
        <lane id="2_2_0-2_2_7_1" index="1" speed="13.40" length="41.95" shape="148.35,141.95 148.35,100.00"/>
    </edge>
    <edge id="2_2_5-2_2_0" from="2_2_5" to="2_2_0" priority="10" type="district.2.30">
        <lane id="2_2_5-2_2_0_0" index="0" speed="13.40" length="41.95" shape="200.00,154.95 158.05,154.95"/>
        <lane id="2_2_5-2_2_0_1" index="1" speed="13.40" length="41.95" shape="200.00,151.65 158.05,151.65"/>
    </edge>
    <edge id="2_2_5-3_2_0" from="2_2_5" to="3_2_0" priority="10" type="district.2.30">
        <lane id="2_2_5-3_2_0_0" index="0" speed="13.40" length="50.00" shape="200.00,145.05 250.00,145.05"/>
        <lane id="2_2_5-3_2_0_1" index="1" speed="13.40" length="50.00" shape="200.00,148.35 250.00,148.35"/>
    </edge>
    <edge id="2_2_7-2_2_0" from="2_2_7" to="2_2_0" priority="10" type="district.2.30">
        <lane id="2_2_7-2_2_0_0" index="0" speed="13.40" length="41.95" shape="154.95,100.00 154.95,141.95"/>
        <lane id="2_2_7-2_2_0_1" index="1" speed="13.40" length="41.95" shape="151.65,100.00 151.65,141.95"/>
    </edge>
    <edge id="2_2_7-2_3_0" from="2_2_7" to="2_3_0" priority="10" type="district.2.30">
        <lane id="2_2_7-2_3_0_0" index="0" speed="13.40" length="50.00" shape="145.05,100.00 145.05,50.00"/>
        <lane id="2_2_7-2_3_0_1" index="1" speed="13.40" length="50.00" shape="148.35,100.00 148.35,50.00"/>
    </edge>
    <edge id="2_3_0-2_2_7" from="2_3_0" to="2_2_7" priority="10" type="district.2.30">
        <lane id="2_3_0-2_2_7_0" index="0" speed="13.40" length="50.00" shape="154.95,50.00 154.95,100.00"/>
        <lane id="2_3_0-2_2_7_1" index="1" speed="13.40" length="50.00" shape="151.65,50.00 151.65,100.00"/>
    </edge>
    <edge id="2_3_0-2_3_7" from="2_3_0" to="2_3_7" priority="10" type="district.2.30">
        <lane id="2_3_0-2_3_7_0" index="0" speed="13.40" length="50.00" shape="145.05,50.00 145.05,0.00"/>
        <lane id="2_3_0-2_3_7_1" index="1" speed="13.40" length="50.00" shape="148.35,50.00 148.35,0.00"/>
    </edge>
    <edge id="2_3_7-2_3_0" from="2_3_7" to="2_3_0" priority="10" type="district.2.30">
        <lane id="2_3_7-2_3_0_0" index="0" speed="13.40" length="50.00" shape="154.95,0.00 154.95,50.00"/>
        <lane id="2_3_7-2_3_0_1" index="1" speed="13.40" length="50.00" shape="151.65,0.00 151.65,50.00"/>
    </edge>
    <edge id="3_2_0-2_2_5" from="3_2_0" to="2_2_5" priority="10" type="district.2.30">
        <lane id="3_2_0-2_2_5_0" index="0" speed="13.40" length="50.00" shape="250.00,154.95 200.00,154.95"/>
        <lane id="3_2_0-2_2_5_1" index="1" speed="13.40" length="50.00" shape="250.00,151.65 200.00,151.65"/>
    </edge>
    <edge id="3_2_0-3_2_5" from="3_2_0" to="3_2_5" priority="10" type="district.2.30">
        <lane id="3_2_0-3_2_5_0" index="0" speed="13.40" length="50.00" shape="250.00,145.05 300.00,145.05"/>
        <lane id="3_2_0-3_2_5_1" index="1" speed="13.40" length="50.00" shape="250.00,148.35 300.00,148.35"/>
    </edge>
    <edge id="3_2_5-3_2_0" from="3_2_5" to="3_2_0" priority="10" type="district.2.30">
        <lane id="3_2_5-3_2_0_0" index="0" speed="13.40" length="50.00" shape="300.00,154.95 250.00,154.95"/>
        <lane id="3_2_5-3_2_0_1" index="1" speed="13.40" length="50.00" shape="300.00,151.65 250.00,151.65"/>
    </edge>
    <edge id="3_2_5-4_2_0" from="3_2_5" to="4_2_0" priority="10" type="district.2.30">
        <lane id="3_2_5-4_2_0_0" index="0" speed="13.40" length="41.95" shape="300.00,145.05 341.95,145.05"/>
        <lane id="3_2_5-4_2_0_1" index="1" speed="13.40" length="41.95" shape="300.00,148.35 341.95,148.35"/>
    </edge>
    <edge id="4_1_0-4_1_3" from="4_1_0" to="4_1_3" priority="10" type="district.2.30">
        <lane id="4_1_0-4_1_3_0" index="0" speed="13.40" length="50.00" shape="354.95,250.00 354.95,300.00"/>
        <lane id="4_1_0-4_1_3_1" index="1" speed="13.40" length="50.00" shape="351.65,250.00 351.65,300.00"/>
    </edge>
    <edge id="4_1_0-4_1_7" from="4_1_0" to="4_1_7" priority="10" type="district.2.30">
        <lane id="4_1_0-4_1_7_0" index="0" speed="13.40" length="50.00" shape="345.05,250.00 345.05,200.00"/>
        <lane id="4_1_0-4_1_7_1" index="1" speed="13.40" length="50.00" shape="348.35,250.00 348.35,200.00"/>
    </edge>
    <edge id="4_1_3-4_1_0" from="4_1_3" to="4_1_0" priority="10" type="district.2.30">
        <lane id="4_1_3-4_1_0_0" index="0" speed="13.40" length="50.00" shape="345.05,300.00 345.05,250.00"/>
        <lane id="4_1_3-4_1_0_1" index="1" speed="13.40" length="50.00" shape="348.35,300.00 348.35,250.00"/>
    </edge>
    <edge id="4_1_7-4_1_0" from="4_1_7" to="4_1_0" priority="10" type="district.2.30">
        <lane id="4_1_7-4_1_0_0" index="0" speed="13.40" length="50.00" shape="354.95,200.00 354.95,250.00"/>
        <lane id="4_1_7-4_1_0_1" index="1" speed="13.40" length="50.00" shape="351.65,200.00 351.65,250.00"/>
    </edge>
    <edge id="4_1_7-4_2_0" from="4_1_7" to="4_2_0" priority="10" type="district.2.30">
        <lane id="4_1_7-4_2_0_0" index="0" speed="13.40" length="41.95" shape="345.05,200.00 345.05,158.05"/>
        <lane id="4_1_7-4_2_0_1" index="1" speed="13.40" length="41.95" shape="348.35,200.00 348.35,158.05"/>
    </edge>
    <edge id="4_2_0-3_2_5" from="4_2_0" to="3_2_5" priority="10" type="district.2.30">
        <lane id="4_2_0-3_2_5_0" index="0" speed="13.40" length="41.95" shape="341.95,154.95 300.00,154.95"/>
        <lane id="4_2_0-3_2_5_1" index="1" speed="13.40" length="41.95" shape="341.95,151.65 300.00,151.65"/>
    </edge>
    <edge id="4_2_0-4_1_7" from="4_2_0" to="4_1_7" priority="10" type="district.2.30">
        <lane id="4_2_0-4_1_7_0" index="0" speed="13.40" length="41.95" shape="354.95,158.05 354.95,200.00"/>
        <lane id="4_2_0-4_1_7_1" index="1" speed="13.40" length="41.95" shape="351.65,158.05 351.65,200.00"/>
    </edge>
    <edge id="4_2_0-4_2_5" from="4_2_0" to="4_2_5" priority="10" type="district.2.30">
        <lane id="4_2_0-4_2_5_0" index="0" speed="13.40" length="41.95" shape="358.05,145.05 400.00,145.05"/>
        <lane id="4_2_0-4_2_5_1" index="1" speed="13.40" length="41.95" shape="358.05,148.35 400.00,148.35"/>
    </edge>
    <edge id="4_2_0-4_2_7" from="4_2_0" to="4_2_7" priority="10" type="district.2.30">
        <lane id="4_2_0-4_2_7_0" index="0" speed="13.40" length="41.95" shape="345.05,141.95 345.05,100.00"/>
        <lane id="4_2_0-4_2_7_1" index="1" speed="13.40" length="41.95" shape="348.35,141.95 348.35,100.00"/>
    </edge>
    <edge id="4_2_5-4_2_0" from="4_2_5" to="4_2_0" priority="10" type="district.2.30">
        <lane id="4_2_5-4_2_0_0" index="0" speed="13.40" length="41.95" shape="400.00,154.95 358.05,154.95"/>
        <lane id="4_2_5-4_2_0_1" index="1" speed="13.40" length="41.95" shape="400.00,151.65 358.05,151.65"/>
    </edge>
    <edge id="4_2_5-5_2_0" from="4_2_5" to="5_2_0" priority="10" type="district.2.30">
        <lane id="4_2_5-5_2_0_0" index="0" speed="13.40" length="50.00" shape="400.00,145.05 450.00,145.05"/>
        <lane id="4_2_5-5_2_0_1" index="1" speed="13.40" length="50.00" shape="400.00,148.35 450.00,148.35"/>
    </edge>
    <edge id="4_2_7-4_2_0" from="4_2_7" to="4_2_0" priority="10" type="district.2.30">
        <lane id="4_2_7-4_2_0_0" index="0" speed="13.40" length="41.95" shape="354.95,100.00 354.95,141.95"/>
        <lane id="4_2_7-4_2_0_1" index="1" speed="13.40" length="41.95" shape="351.65,100.00 351.65,141.95"/>
    </edge>
    <edge id="4_2_7-4_3_0" from="4_2_7" to="4_3_0" priority="10" type="district.2.30">
        <lane id="4_2_7-4_3_0_0" index="0" speed="13.40" length="50.00" shape="345.05,100.00 345.05,50.00"/>
        <lane id="4_2_7-4_3_0_1" index="1" speed="13.40" length="50.00" shape="348.35,100.00 348.35,50.00"/>
    </edge>
    <edge id="4_3_0-4_2_7" from="4_3_0" to="4_2_7" priority="10" type="district.2.30">
        <lane id="4_3_0-4_2_7_0" index="0" speed="13.40" length="50.00" shape="354.95,50.00 354.95,100.00"/>
        <lane id="4_3_0-4_2_7_1" index="1" speed="13.40" length="50.00" shape="351.65,50.00 351.65,100.00"/>
    </edge>
    <edge id="4_3_0-4_3_7" from="4_3_0" to="4_3_7" priority="10" type="district.2.30">
        <lane id="4_3_0-4_3_7_0" index="0" speed="13.40" length="50.00" shape="345.05,50.00 345.05,0.00"/>
        <lane id="4_3_0-4_3_7_1" index="1" speed="13.40" length="50.00" shape="348.35,50.00 348.35,0.00"/>
    </edge>
    <edge id="4_3_7-4_3_0" from="4_3_7" to="4_3_0" priority="10" type="district.2.30">
        <lane id="4_3_7-4_3_0_0" index="0" speed="13.40" length="50.00" shape="354.95,0.00 354.95,50.00"/>
        <lane id="4_3_7-4_3_0_1" index="1" speed="13.40" length="50.00" shape="351.65,0.00 351.65,50.00"/>
    </edge>
    <edge id="5_2_0-4_2_5" from="5_2_0" to="4_2_5" priority="10" type="district.2.30">
        <lane id="5_2_0-4_2_5_0" index="0" speed="13.40" length="50.00" shape="450.00,154.95 400.00,154.95"/>
        <lane id="5_2_0-4_2_5_1" index="1" speed="13.40" length="50.00" shape="450.00,151.65 400.00,151.65"/>
    </edge>
    <edge id="5_2_0-5_2_5" from="5_2_0" to="5_2_5" priority="10" type="district.2.30">
        <lane id="5_2_0-5_2_5_0" index="0" speed="13.40" length="50.00" shape="450.00,145.05 500.00,145.05"/>