<?xml version="1.0" encoding="UTF-8"?>
<configuration xmlns:xsi="http://www.w3.org/2001/XMLSchema-instance" xsi:noNamespaceSchemaLocation="http://sumo.dlr.de/xsd/sumoConfiguration.xsd">
	<input>
		<net-file value="model.net.xml"/>
		<start value="1"/>
	</input>
	<gui_only>
		<gui-settings-file value="model.gui.settings.xml"/>
	</gui_only>

    <time>
        <begin value="0"/>
    </time>
</configuration>
