<?xml version="1.0" encoding="UTF-8"?>
<connections xmlns:xsi="http://www.w3.org/2001/XMLSchema-instance" xsi:noNamespaceSchemaLocation="http://sumo.dlr.de/xsd/connections_file.xsd">
	<connection from="1_2_0-1_2_5" to="1_2_5-2_2_0" />
	<connection from="2_2_0-1_2_5" to="1_2_5-1_2_0" />
	<connection from="2_1_0-2_1_7" to="2_1_7-2_2_0" />
	<connection from="2_2_0-2_1_7" to="2_1_7-2_1_0" />
	<connection from="2_2_0-2_2_5" to="2_2_5-3_2_0" />
	<connection from="3_2_0-2_2_5" to="2_2_5-2_2_0" />
	<connection from="3_2_0-3_2_5" to="3_2_5-4_2_0" />
	<connection from="4_2_0-3_2_5" to="3_2_5-3_2_0" />
	<connection from="4_1_0-4_1_7" to="4_1_7-4_2_0" />
	<connection from="4_2_0-4_1_7" to="4_1_7-4_1_0" />
	<connection from="4_2_0-4_2_5" to="4_2_5-5_2_0" />
	<connection from="5_2_0-4_2_5" to="4_2_5-4_2_0" />
	<connection from="2_2_0-2_2_7" to="2_2_7-2_3_0" />
	<connection from="2_3_0-2_2_7" to="2_2_7-2_2_0" />
	<connection from="4_2_0-4_2_7" to="4_2_7-4_3_0" />
	<connection from="4_3_0-4_2_7" to="4_2_7-4_2_0" />
<!--Generated by District-->
</connections>
