<?xml version="1.0" encoding="UTF-8"?>
<edges xmlns:xsi="http://www.w3.org/2001/XMLSchema-instance" xsi:noNamespaceSchemaLocation="http://sumo.dlr.de/xsd/edges_file.xsd">
	<edge id="2_1_3-2_1_0" from="2_1_3" to="2_1_0" type="district.2.30" />
	<edge id="2_1_0-2_1_3" from="2_1_0" to="2_1_3" type="district.2.30" />
	<edge id="2_1_7-2_1_0" from="2_1_7" to="2_1_0" type="district.2.30" />
	<edge id="2_1_0-2_1_7" from="2_1_0" to="2_1_7" type="district.2.30" />
	<edge id="4_1_3-4_1_0" from="4_1_3" to="4_1_0" type="district.2.30" />
	<edge id="4_1_0-4_1_3" from="4_1_0" to="4_1_3" type="district.2.30" />
	<edge id="4_1_7-4_1_0" from="4_1_7" to="4_1_0" type="district.2.30" />
	<edge id="4_1_0-4_1_7" from="4_1_0" to="4_1_7" type="district.2.30" />
	<edge id="1_2_1-1_2_0" from="1_2_1" to="1_2_0" type="district.2.30" />
	<edge id="1_2_0-1_2_1" from="1_2_0" to="1_2_1" type="district.2.30" />
	<edge id="1_2_5-1_2_0" from="1_2_5" to="1_2_0" type="district.2.30" />
	<edge id="1_2_0-1_2_5" from="1_2_0" to="1_2_5" type="district.2.30" />
	<edge id="1_2_5-2_2_0" from="1_2_5" to="2_2_0" type="district.2.30" />
	<edge id="2_2_0-1_2_5" from="2_2_0" to="1_2_5" type="district.2.30" />
	<edge id="2_1_7-2_2_0" from="2_1_7" to="2_2_0" type="district.2.30" />
	<edge id="2_2_0-2_1_7" from="2_2_0" to="2_1_7" type="district.2.30" />
	<edge id="2_2_5-2_2_0" from="2_2_5" to="2_2_0" type="district.2.30" />
	<edge id="2_2_0-2_2_5" from="2_2_0" to="2_2_5" type="district.2.30" />
	<edge id="2_2_7-2_2_0" from="2_2_7" to="2_2_0" type="district.2.30" />
	<edge id="2_2_0-2_2_7" from="2_2_0" to="2_2_7" type="district.2.30" />
	<edge id="2_2_5-3_2_0" from="2_2_5" to="3_2_0" type="district.2.30" />
	<edge id="3_2_0-2_2_5" from="3_2_0" to="2_2_5" type="district.2.30" />
	<edge id="3_2_5-3_2_0" from="3_2_5" to="3_2_0" type="district.2.30" />
	<edge id="3_2_0-3_2_5" from="3_2_0" to="3_2_5" type="district.2.30" />
	<edge id="3_2_5-4_2_0" from="3_2_5" to="4_2_0" type="district.2.30" />
	<edge id="4_2_0-3_2_5" from="4_2_0" to="3_2_5" type="district.2.30" />
	<edge id="4_1_7-4_2_0" from="4_1_7" to="4_2_0" type="district.2.30" />
	<edge id="4_2_0-4_1_7" from="4_2_0" to="4_1_7" type="district.2.30" />
	<edge id="4_2_5-4_2_0" from="4_2_5" to="4_2_0" type="district.2.30" />
	<edge id="4_2_0-4_2_5" from="4_2_0" to="4_2_5" type="district.2.30" />
	<edge id="4_2_7-4_2_0" from="4_2_7" to="4_2_0" type="district.2.30" />
	<edge id="4_2_0-4_2_7" from="4_2_0" to="4_2_7" type="district.2.30" />
	<edge id="4_2_5-5_2_0" from="4_2_5" to="5_2_0" type="district.2.30" />
	<edge id="5_2_0-4_2_5" from="5_2_0" to="4_2_5" type="district.2.30" />
	<edge id="5_2_5-5_2_0" from="5_2_5" to="5_2_0" type="district.2.30" />
	<edge id="5_2_0-5_2_5" from="5_2_0" to="5_2_5" type="district.2.30" />
	<edge id="2_2_7-2_3_0" from="2_2_7" to="2_3_0" type="district.2.30" />
	<edge id="2_3_0-2_2_7" from="2_3_0" to="2_2_7" type="district.2.30" />
	<edge id="2_3_7-2_3_0" from="2_3_7" to="2_3_0" type="district.2.30" />
	<edge id="2_3_0-2_3_7" from="2_3_0" to="2_3_7" type="district.2.30" />
	<edge id="4_2_7-4_3_0" from="4_2_7" to="4_3_0" type="district.2.30" />
	<edge id="4_3_0-4_2_7" from="4_3_0" to="4_2_7" type="district.2.30" />
	<edge id="4_3_7-4_3_0" from="4_3_7" to="4_3_0" type="district.2.30" />
	<edge id="4_3_0-4_3_7" from="4_3_0" to="4_3_7" type="district.2.30" />
<!--Generated by District-->
</edges>
