<?xml version="1.0" ?>
<routes>
    <route edges="6:4 4:0 0:10 10:11 " id="6:4TO10:11"/>
    <route edges="6:4 4:0 0:1 1:2 2:3 3:16 16:17 " id="6:4TO16:17"/>
    <route edges="6:4 4:0 0:1 1:2 2:3 3:5 5:7 " id="6:4TO5:7"/>
    <route edges="6:4 4:0 0:1 1:2 2:14 14:15 " id="6:4TO14:15"/>
    <route edges="6:4 4:0 0:8 8:9 " id="6:4TO8:9"/>
    <route edges="6:4 4:0 0:1 1:2 2:3 3:18 18:19 " id="6:4TO18:19"/>
    <route edges="6:4 4:0 0:1 1:12 12:13 " id="6:4TO12:13"/>
    <route edges="9:8 8:0 0:4 4:6 " id="9:8TO4:6"/>
    <route edges="9:8 8:0 0:1 1:2 2:3 3:16 16:17 " id="9:8TO16:17"/>
    <route edges="9:8 8:0 0:1 1:2 2:3 3:5 5:7 " id="9:8TO5:7"/>
    <route edges="9:8 8:0 0:1 1:2 2:14 14:15 " id="9:8TO14:15"/>
    <route edges="9:8 8:0 0:10 10:11 " id="9:8TO10:11"/>
    <route edges="9:8 8:0 0:1 1:2 2:3 3:18 18:19 " id="9:8TO18:19"/>
    <route edges="9:8 8:0 0:1 1:12 12:13 " id="9:8TO12:13"/>
    <route edges="11:10 10:0 0:4 4:6 " id="11:10TO4:6"/>
    <route edges="11:10 10:0 0:1 1:2 2:3 3:16 16:17 " id="11:10TO16:17"/>
    <route edges="11:10 10:0 0:1 1:2 2:3 3:5 5:7 " id="11:10TO5:7"/>
    <route edges="11:10 10:0 0:1 1:2 2:14 14:15 " id="11:10TO14:15"/>
    <route edges="11:10 10:0 0:8 8:9 " id="11:10TO8:9"/>
    <route edges="11:10 10:0 0:1 1:2 2:3 3:18 18:19 " id="11:10TO18:19"/>
    <route edges="11:10 10:0 0:1 1:12 12:13 " id="11:10TO12:13"/>
    <route edges="13:12 12:1 1:0 0:10 10:11 " id="13:12TO10:11"/>
    <route edges="13:12 12:1 1:2 2:14 14:15 " id="13:12TO14:15"/>
    <route edges="13:12 12:1 1:0 0:8 8:9 " id="13:12TO8:9"/>
    <route edges="13:12 12:1 1:2 2:3 3:16 16:17 " id="13:12TO16:17"/>
    <route edges="13:12 12:1 1:0 0:4 4:6 " id="13:12TO4:6"/>
    <route edges="13:12 12:1 1:2 2:3 3:5 5:7 " id="13:12TO5:7"/>
    <route edges="13:12 12:1 1:2 2:3 3:18 18:19 " id="13:12TO18:19"/>
    <route edges="15:14 14:2 2:1 1:12 12:13 " id="15:14TO12:13"/>
    <route edges="15:14 14:2 2:3 3:18 18:19 " id="15:14TO18:19"/>
    <route edges="15:14 14:2 2:3 3:16 16:17 " id="15:14TO16:17"/>
    <route edges="15:14 14:2 2:3 3:5 5:7 " id="15:14TO5:7"/>
    <route edges="15:14 14:2 2:1 1:0 0:8 8:9 " id="15:14TO8:9"/>
    <route edges="15:14 14:2 2:1 1:0 0:10 10:11 " id="15:14TO10:11"/>
    <route edges="15:14 14:2 2:1 1:0 0:4 4:6 " id="15:14TO4:6"/>
    <route edges="17:16 16:3 3:2 2:1 1:0 0:8 8:9 " id="17:16TO8:9"/>
    <route edges="17:16 16:3 3:5 5:7 " id="17:16TO5:7"/>
    <route edges="17:16 16:3 3:2 2:1 1:0 0:10 10:11 " id="17:16TO10:11"/>
    <route edges="17:16 16:3 3:2 2:1 1:0 0:4 4:6 " id="17:16TO4:6"/>
    <route edges="17:16 16:3 3:18 18:19 " id="17:16TO18:19"/>
    <route edges="17:16 16:3 3:2 2:1 1:12 12:13 " id="17:16TO12:13"/>
    <route edges="17:16 16:3 3:2 2:14 14:15 " id="17:16TO14:15"/>
    <route edges="19:18 18:3 3:2 2:1 1:0 0:8 8:9 " id="19:18TO8:9"/>
    <route edges="19:18 18:3 3:5 5:7 " id="19:18TO5:7"/>
    <route edges="19:18 18:3 3:2 2:1 1:0 0:10 10:11 " id="19:18TO10:11"/>
    <route edges="19:18 18:3 3:2 2:1 1:0 0:4 4:6 " id="19:18TO4:6"/>
    <route edges="19:18 18:3 3:16 16:17 " id="19:18TO16:17"/>
    <route edges="19:18 18:3 3:2 2:1 1:12 12:13 " id="19:18TO12:13"/>
    <route edges="19:18 18:3 3:2 2:14 14:15 " id="19:18TO14:15"/>
    <route edges="7:5 5:3 3:18 18:19 " id="7:5TO18:19"/>
    <route edges="7:5 5:3 3:2 2:1 1:0 0:8 8:9 " id="7:5TO8:9"/>
    <route edges="7:5 5:3 3:2 2:1 1:0 0:4 4:6 " id="7:5TO4:6"/>
    <route edges="7:5 5:3 3:2 2:1 1:12 12:13 " id="7:5TO12:13"/>
    <route edges="7:5 5:3 3:16 16:17 " id="7:5TO16:17"/>
    <route edges="7:5 5:3 3:2 2:1 1:0 0:10 10:11 " id="7:5TO10:11"/>
    <route edges="7:5 5:3 3:2 2:14 14:15 " id="7:5TO14:15"/>
</routes>

