<?xml version="1.0" encoding="UTF-8"?>

<!-- generated on Fri Aug 11 15:13:18 2017 by SUMO netconvert Version 0.30.0
<?xml version="1.0" encoding="UTF-8"?>

<configuration xmlns:xsi="http://www.w3.org/2001/XMLSchema-instance" xsi:noNamespaceSchemaLocation="http://sumo.dlr.de/xsd/netconvertConfiguration.xsd">

    <input>
        <node-files value="model.nod.xml"/>
        <edge-files value="model.edg.xml"/>
        <connection-files value="model.con.xml"/>
    </input>

    <output>
        <output-file value="model.net.xml"/>
    </output>

    <processing>
        <no-turnarounds value="true"/>
    </processing>

    <report>
        <verbose value="true"/>
    </report>

</configuration>
-->

<net version="0.27" xmlns:xsi="http://www.w3.org/2001/XMLSchema-instance" xsi:noNamespaceSchemaLocation="http://sumo.dlr.de/xsd/net_file.xsd">

    <location netOffset="0.00,100.00" convBoundary="0.00,0.00,200.00,100.00" origBoundary="0.00,-100.00,200.00,0.00" projParameter="!"/>

    <edge id=":1_1_0_0" function="internal">
        <lane id=":1_1_0_0_0" index="0" speed="13.90" length="16.43" shape="59.35,51.65 55.17,52.03 51.32,53.18 47.78,55.10 44.56,57.78"/>
    </edge>
    <edge id=":1_1_0_1" function="internal">
        <lane id=":1_1_0_1_0" index="0" speed="13.90" length="18.69" shape="59.35,51.65 40.65,51.65"/>
    </edge>
    <edge id=":1_1_0_2" function="internal">
        <lane id=":1_1_0_2_0" index="0" speed="13.90" length="7.15" shape="59.35,51.65 54.10,51.06 52.60,49.95"/>
    </edge>
    <edge id=":1_1_0_12" function="internal">
        <lane id=":1_1_0_12_0" index="0" speed="13.90" length="9.36" shape="52.60,49.95 51.71,49.29 52.15,46.35 55.44,42.22"/>
    </edge>
    <edge id=":1_1_0_3" function="internal">
        <lane id=":1_1_0_3_0" index="0" speed="13.90" length="6.64" shape="57.78,44.56 56.45,46.22 56.27,47.40 57.24,48.11 59.35,48.35"/>
    </edge>
    <edge id=":1_1_0_4" function="internal">
        <lane id=":1_1_0_4_0" index="0" speed="13.90" length="18.69" shape="57.78,44.56 44.56,57.78"/>
    </edge>
    <edge id=":1_1_0_5" function="internal">
        <lane id=":1_1_0_5_0" index="0" speed="13.90" length="9.25" shape="57.78,44.56 54.05,47.66 50.17,49.76"/>
    </edge>
    <edge id=":1_1_0_13" function="internal">
        <lane id=":1_1_0_13_0" index="0" speed="13.90" length="9.77" shape="50.17,49.76 49.95,49.88 45.49,51.21 40.65,51.65"/>
    </edge>
    <edge id=":1_1_0_6" function="internal">
        <lane id=":1_1_0_6_0" index="0" speed="13.90" length="16.43" shape="40.65,48.35 44.83,47.97 48.68,46.82 52.22,44.90 55.44,42.22"/>
    </edge>
    <edge id=":1_1_0_7" function="internal">
        <lane id=":1_1_0_7_0" index="0" speed="13.90" length="18.69" shape="40.65,48.35 59.35,48.35"/>
    </edge>
    <edge id=":1_1_0_8" function="internal">
        <lane id=":1_1_0_8_0" index="0" speed="13.90" length="7.15" shape="40.65,48.35 45.90,48.94 47.40,50.05"/>
    </edge>
    <edge id=":1_1_0_14" function="internal">
        <lane id=":1_1_0_14_0" index="0" speed="13.90" length="9.36" shape="47.40,50.05 48.29,50.71 47.85,53.65 44.56,57.78"/>
    </edge>
    <edge id=":1_1_0_9" function="internal">
        <lane id=":1_1_0_9_0" index="0" speed="13.90" length="6.64" shape="42.22,55.44 43.55,53.78 43.73,52.60 42.76,51.89 40.65,51.65"/>
    </edge>
    <edge id=":1_1_0_10" function="internal">
        <lane id=":1_1_0_10_0" index="0" speed="13.90" length="18.69" shape="42.22,55.44 55.44,42.22"/>
    </edge>
    <edge id=":1_1_0_11" function="internal">
        <lane id=":1_1_0_11_0" index="0" speed="13.90" length="9.25" shape="42.22,55.44 45.95,52.34 49.83,50.24"/>
    </edge>
    <edge id=":1_1_0_15" function="internal">
        <lane id=":1_1_0_15_0" index="0" speed="13.90" length="9.77" shape="49.83,50.24 50.05,50.12 54.51,48.79 59.35,48.35"/>
    </edge>
    <edge id=":1_1_5_0" function="internal">
        <lane id=":1_1_5_0_0" index="0" speed="13.90" length="0.10" shape="100.00,51.65 100.00,51.65"/>
    </edge>
    <edge id=":1_1_5_1" function="internal">
        <lane id=":1_1_5_1_0" index="0" speed="13.90" length="0.10" shape="100.00,48.35 100.00,48.35"/>
    </edge>
    <edge id=":2_1_0_0" function="internal">
        <lane id=":2_1_0_0_0" index="0" speed="13.90" length="12.14" shape="155.44,57.78 152.51,55.10 149.83,53.18 147.41,52.03 145.25,51.65"/>
    </edge>
    <edge id=":2_1_0_1" function="internal">
        <lane id=":2_1_0_1_0" index="0" speed="13.90" length="14.72" shape="155.44,57.78 152.34,54.33 150.12,51.10 148.79,48.07 148.35,45.25"/>
    </edge>
    <edge id=":2_1_0_2" function="internal">
        <lane id=":2_1_0_2_0" index="0" speed="13.90" length="16.51" shape="155.44,57.78 152.15,53.65 151.71,50.71 154.10,48.94 159.35,48.35"/>
    </edge>
    <edge id=":2_1_0_3" function="internal">
        <lane id=":2_1_0_3_0" index="0" speed="13.90" length="6.64" shape="159.35,51.65 157.24,51.89 156.27,52.60 156.45,53.78 157.78,55.44"/>
    </edge>
    <edge id=":2_1_0_4" function="internal">
        <lane id=":2_1_0_4_0" index="0" speed="13.90" length="14.10" shape="159.35,51.65 145.25,51.65"/>
    </edge>
    <edge id=":2_1_0_5" function="internal">
        <lane id=":2_1_0_5_0" index="0" speed="13.90" length="8.61" shape="159.35,51.65 154.54,51.25 151.10,50.05 151.00,49.95"/>
    </edge>
    <edge id=":2_1_0_12" function="internal">
        <lane id=":2_1_0_12_0" index="0" speed="13.90" length="5.61" shape="151.00,49.95 149.04,48.05 148.35,45.25"/>
    </edge>
    <edge id=":2_1_0_6" function="internal">
        <lane id=":2_1_0_6_0" index="0" speed="13.90" length="9.02" shape="151.65,45.25 152.13,46.61 153.57,47.57 155.98,48.16 159.35,48.35"/>
    </edge>
    <edge id=":2_1_0_7" function="internal">
        <lane id=":2_1_0_7_0" index="0" speed="13.90" length="12.14" shape="151.65,45.25 152.03,47.41 153.18,49.83 155.10,52.51 157.78,55.44"/>
    </edge>
    <edge id=":2_1_0_8" function="internal">
        <lane id=":2_1_0_8_0" index="0" speed="13.90" length="10.32" shape="151.65,45.25 151.25,48.05 150.05,50.05 148.05,51.25 145.25,51.65"/>
    </edge>
    <edge id=":2_1_0_9" function="internal">
        <lane id=":2_1_0_9_0" index="0" speed="13.90" length="5.00" shape="145.25,48.35 146.61,48.16 147.57,47.58 148.16,46.61 148.35,45.25"/>
    </edge>
    <edge id=":2_1_0_10" function="internal">
        <lane id=":2_1_0_10_0" index="0" speed="13.90" length="14.10" shape="145.25,48.35 159.35,48.35"/>
    </edge>
    <edge id=":2_1_0_11" function="internal">
        <lane id=":2_1_0_11_0" index="0" speed="13.90" length="5.98" shape="145.25,48.35 148.07,48.79 150.93,50.05"/>
    </edge>
    <edge id=":2_1_0_13" function="internal">
        <lane id=":2_1_0_13_0" index="0" speed="13.90" length="8.74" shape="150.93,50.05 151.10,50.12 154.33,52.34 157.78,55.44"/>
    </edge>

    <edge id="1_1_0-1_1_1" from="1_1_0" to="1_1_1" priority="-1">
        <lane id="1_1_0-1_1_1_0" index="0" speed="13.90" length="40.65" shape="40.65,51.65 0.00,51.65"/>
    </edge>
    <edge id="1_1_0-1_1_2" from="1_1_0" to="1_1_2" priority="-1">
        <lane id="1_1_0-1_1_2_0" index="0" speed="13.90" length="61.36" shape="44.56,57.78 1.17,101.17"/>
    </edge>
    <edge id="1_1_0-1_1_5" from="1_1_0" to="1_1_5" priority="-1">
        <lane id="1_1_0-1_1_5_0" index="0" speed="13.90" length="40.65" shape="59.35,48.35 100.00,48.35"/>
    </edge>
    <edge id="1_1_0-1_1_6" from="1_1_0" to="1_1_6" priority="-1">
        <lane id="1_1_0-1_1_6_0" index="0" speed="13.90" length="61.36" shape="55.44,42.22 98.83,-1.17"/>
    </edge>
    <edge id="1_1_1-1_1_0" from="1_1_1" to="1_1_0" priority="-1">
        <lane id="1_1_1-1_1_0_0" index="0" speed="13.90" length="40.65" shape="0.00,48.35 40.65,48.35"/>
    </edge>
    <edge id="1_1_2-1_1_0" from="1_1_2" to="1_1_0" priority="-1">
        <lane id="1_1_2-1_1_0_0" index="0" speed="13.90" length="61.36" shape="-1.17,98.83 42.22,55.44"/>
    </edge>
    <edge id="1_1_5-1_1_0" from="1_1_5" to="1_1_0" priority="-1">
        <lane id="1_1_5-1_1_0_0" index="0" speed="13.90" length="40.65" shape="100.00,51.65 59.35,51.65"/>
    </edge>
    <edge id="1_1_5-2_1_0" from="1_1_5" to="2_1_0" priority="-1">
        <lane id="1_1_5-2_1_0_0" index="0" speed="13.90" length="45.25" shape="100.00,48.35 145.25,48.35"/>
    </edge>
    <edge id="1_1_6-1_1_0" from="1_1_6" to="1_1_0" priority="-1">
        <lane id="1_1_6-1_1_0_0" index="0" speed="13.90" length="61.36" shape="101.17,1.17 57.78,44.56"/>
    </edge>
    <edge id="2_1_0-1_1_5" from="2_1_0" to="1_1_5" priority="-1">
        <lane id="2_1_0-1_1_5_0" index="0" speed="13.90" length="45.25" shape="145.25,51.65 100.00,51.65"/>
    </edge>
    <edge id="2_1_0-2_1_4" from="2_1_0" to="2_1_4" priority="-1">
        <lane id="2_1_0-2_1_4_0" index="0" speed="13.90" length="61.36" shape="157.78,55.44 201.17,98.83"/>
    </edge>
    <edge id="2_1_0-2_1_5" from="2_1_0" to="2_1_5" priority="-1">
        <lane id="2_1_0-2_1_5_0" index="0" speed="13.90" length="40.65" shape="159.35,48.35 200.00,48.35"/>
    </edge>
    <edge id="2_1_0-2_1_7" from="2_1_0" to="2_1_7" priority="-1">
        <lane id="2_1_0-2_1_7_0" index="0" speed="13.90" length="45.25" shape="148.35,45.25 148.35,0.00"/>
    </edge>
    <edge id="2_1_4-2_1_0" from="2_1_4" to="2_1_0" priority="-1">
        <lane id="2_1_4-2_1_0_0" index="0" speed="13.90" length="61.36" shape="198.83,101.17 155.44,57.78"/>
    </edge>
    <edge id="2_1_5-2_1_0" from="2_1_5" to="2_1_0" priority="-1">
        <lane id="2_1_5-2_1_0_0" index="0" speed="13.90" length="40.65" shape="200.00,51.65 159.35,51.65"/>
    </edge>
    <edge id="2_1_7-2_1_0" from="2_1_7" to="2_1_0" priority="-1">
        <lane id="2_1_7-2_1_0_0" index="0" speed="13.90" length="45.25" shape="151.65,0.00 151.65,45.25"/>
    </edge>

    <tlLogic id="1_1_0" type="static" programID="0" offset="0">
        <phase duration="31" state="GGgrrrGGgrrr"/>
        <phase duration="4" state="yygrrryygrrr"/>
        <phase duration="6" state="rrGrrrrrGrrr"/>
        <phase duration="4" state="rryrrrrryrrr"/>
        <phase duration="31" state="rrrGGgrrrGGg"/>
        <phase duration="4" state="rrryygrrryyg"/>
        <phase duration="6" state="rrrrrGrrrrrG"/>
        <phase duration="4" state="rrrrryrrrrry"/>
    </tlLogic>

    <junction id="1_1_0" type="traffic_light" x="50.00" y="50.00" incLanes="1_1_5-1_1_0_0 1_1_6-1_1_0_0 1_1_1-1_1_0_0 1_1_2-1_1_0_0" intLanes=":1_1_0_0_0 :1_1_0_1_0 :1_1_0_12_0 :1_1_0_3_0 :1_1_0_4_0 :1_1_0_13_0 :1_1_0_6_0 :1_1_0_7_0 :1_1_0_14_0 :1_1_0_9_0 :1_1_0_10_0 :1_1_0_15_0" shape="59.35,53.25 59.35,46.75 58.91,45.69 54.31,41.09 40.65,46.75 40.65,53.25 41.09,54.31 45.69,58.91">
        <request index="0" response="000000000000" foes="000100010000" cont="0"/>
        <request index="1" response="000000000000" foes="111100110000" cont="0"/>
        <request index="2" response="000011000000" foes="110011110000" cont="1"/>
        <request index="3" response="000010000000" foes="100010000000" cont="0"/>
        <request index="4" response="000110000111" foes="100110000111" cont="0"/>
        <request index="5" response="011110000110" foes="011110000110" cont="1"/>
        <request index="6" response="000000000000" foes="010000000100" cont="0"/>
        <request index="7" response="000000000000" foes="110000111100" cont="0"/>
        <request index="8" response="000000000011" foes="110000110011" cont="1"/>
        <request index="9" response="000000000010" foes="000000100010" cont="0"/>
        <request index="10" response="000111000110" foes="000111100110" cont="0"/>
        <request index="11" response="000110011110" foes="000110011110" cont="1"/>
    </junction>
    <junction id="1_1_1" type="dead_end" x="0.00" y="50.00" incLanes="1_1_0-1_1_1_0" intLanes="" shape="0.00,49.95 0.00,53.25 0.00,50.05"/>
    <junction id="1_1_2" type="dead_end" x="0.00" y="100.00" incLanes="1_1_0-1_1_2_0" intLanes="" shape="-0.04,99.96 2.30,102.30 0.04,100.04"/>
    <junction id="1_1_5" type="priority" x="100.00" y="50.00" incLanes="2_1_0-1_1_5_0 1_1_0-1_1_5_0" intLanes=":1_1_5_0_0 :1_1_5_1_0" shape="100.00,53.25 100.00,46.75 100.00,53.25">
        <request index="0" response="00" foes="00" cont="0"/>
        <request index="1" response="00" foes="00" cont="0"/>
    </junction>
    <junction id="1_1_6" type="dead_end" x="100.00" y="0.00" incLanes="1_1_0-1_1_6_0" intLanes="" shape="100.04,0.04 97.70,-2.30 99.96,-0.04"/>
    <junction id="2_1_0" type="priority" x="150.00" y="50.00" incLanes="2_1_4-2_1_0_0 2_1_5-2_1_0_0 2_1_7-2_1_0_0 1_1_5-2_1_0_0" intLanes=":2_1_0_0_0 :2_1_0_1_0 :2_1_0_2_0 :2_1_0_3_0 :2_1_0_4_0 :2_1_0_12_0 :2_1_0_6_0 :2_1_0_7_0 :2_1_0_8_0 :2_1_0_9_0 :2_1_0_10_0 :2_1_0_13_0" shape="154.31,58.91 158.91,54.31 159.35,53.25 159.35,46.75 153.25,45.25 146.75,45.25 145.25,46.75 145.25,53.25">
        <request index="0" response="000000010000" foes="000100010000" cont="0"/>
        <request index="1" response="111000110000" foes="111100110000" cont="0"/>
        <request index="2" response="110011110000" foes="110011110000" cont="0"/>
        <request index="3" response="000000000000" foes="100010000000" cont="0"/>
        <request index="4" response="000000000000" foes="100110000111" cont="0"/>
        <request index="5" response="011000000000" foes="011110000110" cont="1"/>
        <request index="6" response="010000000000" foes="010000000100" cont="0"/>
        <request index="7" response="110000111000" foes="110000111100" cont="0"/>
        <request index="8" response="110000110011" foes="110000110011" cont="0"/>
        <request index="9" response="000000000000" foes="000000100010" cont="0"/>
        <request index="10" response="000000000000" foes="000111100110" cont="0"/>
        <request index="11" response="000000011000" foes="000110011110" cont="1"/>
    </junction>
    <junction id="2_1_4" type="dead_end" x="200.00" y="100.00" incLanes="2_1_0-2_1_4_0" intLanes="" shape="199.96,100.04 202.30,97.70 200.04,99.96"/>
    <junction id="2_1_5" type="dead_end" x="200.00" y="50.00" incLanes="2_1_0-2_1_5_0" intLanes="" shape="200.00,50.05 200.00,46.75 200.00,49.95"/>
    <junction id="2_1_7" type="dead_end" x="150.00" y="0.00" incLanes="2_1_0-2_1_7_0" intLanes="" shape="150.05,0.00 146.75,0.00 149.95,0.00"/>

    <junction id=":1_1_0_12_0" type="internal" x="52.60" y="49.95" incLanes=":1_1_0_2_0 1_1_1-1_1_0_0" intLanes=":1_1_0_4_0 :1_1_0_5_0 :1_1_0_6_0 :1_1_0_7_0 :1_1_0_10_0 :1_1_0_11_0"/>
    <junction id=":1_1_0_13_0" type="internal" x="50.17" y="49.76" incLanes=":1_1_0_5_0 1_1_2-1_1_0_0" intLanes=":1_1_0_1_0 :1_1_0_2_0 :1_1_0_7_0 :1_1_0_8_0 :1_1_0_9_0 :1_1_0_10_0"/>
    <junction id=":1_1_0_14_0" type="internal" x="47.40" y="50.05" incLanes=":1_1_0_8_0 1_1_5-1_1_0_0" intLanes=":1_1_0_0_0 :1_1_0_1_0 :1_1_0_4_0 :1_1_0_5_0 :1_1_0_10_0 :1_1_0_11_0"/>
    <junction id=":1_1_0_15_0" type="internal" x="49.83" y="50.24" incLanes=":1_1_0_11_0 1_1_6-1_1_0_0" intLanes=":1_1_0_1_0 :1_1_0_2_0 :1_1_0_3_0 :1_1_0_4_0 :1_1_0_7_0 :1_1_0_8_0"/>
    <junction id=":2_1_0_12_0" type="internal" x="151.00" y="49.95" incLanes=":2_1_0_5_0 1_1_5-2_1_0_0" intLanes=":2_1_0_1_0 :2_1_0_2_0 :2_1_0_7_0 :2_1_0_8_0 :2_1_0_9_0 :2_1_0_10_0"/>
    <junction id=":2_1_0_13_0" type="internal" x="150.93" y="50.05" incLanes=":2_1_0_11_0 2_1_5-2_1_0_0" intLanes=":2_1_0_1_0 :2_1_0_2_0 :2_1_0_3_0 :2_1_0_4_0 :2_1_0_7_0 :2_1_0_8_0"/>

    <connection from="1_1_0-1_1_5" to="1_1_5-2_1_0" fromLane="0" toLane="0" via=":1_1_5_1_0" dir="s" state="M"/>
    <connection from="1_1_1-1_1_0" to="1_1_0-1_1_6" fromLane="0" toLane="0" via=":1_1_0_6_0" tl="1_1_0" linkIndex="6" dir="r" state="o"/>
    <connection from="1_1_1-1_1_0" to="1_1_0-1_1_5" fromLane="0" toLane="0" via=":1_1_0_7_0" tl="1_1_0" linkIndex="7" dir="s" state="o"/>
    <connection from="1_1_1-1_1_0" to="1_1_0-1_1_2" fromLane="0" toLane="0" via=":1_1_0_8_0" tl="1_1_0" linkIndex="8" dir="l" state="o"/>
    <connection from="1_1_2-1_1_0" to="1_1_0-1_1_1" fromLane="0" toLane="0" via=":1_1_0_9_0" tl="1_1_0" linkIndex="9" dir="r" state="o"/>
    <connection from="1_1_2-1_1_0" to="1_1_0-1_1_6" fromLane="0" toLane="0" via=":1_1_0_10_0" tl="1_1_0" linkIndex="10" dir="s" state="o"/>
    <connection from="1_1_2-1_1_0" to="1_1_0-1_1_5" fromLane="0" toLane="0" via=":1_1_0_11_0" tl="1_1_0" linkIndex="11" dir="l" state="o"/>
    <connection from="1_1_5-1_1_0" to="1_1_0-1_1_2" fromLane="0" toLane="0" via=":1_1_0_0_0" tl="1_1_0" linkIndex="0" dir="r" state="o"/>
    <connection from="1_1_5-1_1_0" to="1_1_0-1_1_1" fromLane="0" toLane="0" via=":1_1_0_1_0" tl="1_1_0" linkIndex="1" dir="s" state="o"/>
    <connection from="1_1_5-1_1_0" to="1_1_0-1_1_6" fromLane="0" toLane="0" via=":1_1_0_2_0" tl="1_1_0" linkIndex="2" dir="l" state="o"/>
    <connection from="1_1_5-2_1_0" to="2_1_0-2_1_7" fromLane="0" toLane="0" via=":2_1_0_9_0" dir="r" state="M"/>
    <connection from="1_1_5-2_1_0" to="2_1_0-2_1_5" fromLane="0" toLane="0" via=":2_1_0_10_0" dir="s" state="M"/>
    <connection from="1_1_5-2_1_0" to="2_1_0-2_1_4" fromLane="0" toLane="0" via=":2_1_0_11_0" dir="l" state="m"/>
    <connection from="1_1_6-1_1_0" to="1_1_0-1_1_5" fromLane="0" toLane="0" via=":1_1_0_3_0" tl="1_1_0" linkIndex="3" dir="r" state="o"/>
    <connection from="1_1_6-1_1_0" to="1_1_0-1_1_2" fromLane="0" toLane="0" via=":1_1_0_4_0" tl="1_1_0" linkIndex="4" dir="s" state="o"/>
    <connection from="1_1_6-1_1_0" to="1_1_0-1_1_1" fromLane="0" toLane="0" via=":1_1_0_5_0" tl="1_1_0" linkIndex="5" dir="l" state="o"/>
    <connection from="2_1_0-1_1_5" to="1_1_5-1_1_0" fromLane="0" toLane="0" via=":1_1_5_0_0" dir="s" state="M"/>
    <connection from="2_1_4-2_1_0" to="2_1_0-1_1_5" fromLane="0" toLane="0" via=":2_1_0_0_0" dir="r" state="m"/>
    <connection from="2_1_4-2_1_0" to="2_1_0-2_1_7" fromLane="0" toLane="0" via=":2_1_0_1_0" dir="L" state="m"/>
    <connection from="2_1_4-2_1_0" to="2_1_0-2_1_5" fromLane="0" toLane="0" via=":2_1_0_2_0" dir="l" state="m"/>
    <connection from="2_1_5-2_1_0" to="2_1_0-2_1_4" fromLane="0" toLane="0" via=":2_1_0_3_0" dir="r" state="M"/>
    <connection from="2_1_5-2_1_0" to="2_1_0-1_1_5" fromLane="0" toLane="0" via=":2_1_0_4_0" dir="s" state="M"/>
    <connection from="2_1_5-2_1_0" to="2_1_0-2_1_7" fromLane="0" toLane="0" via=":2_1_0_5_0" dir="l" state="m"/>
    <connection from="2_1_7-2_1_0" to="2_1_0-2_1_5" fromLane="0" toLane="0" via=":2_1_0_6_0" dir="r" state="m"/>
    <connection from="2_1_7-2_1_0" to="2_1_0-2_1_4" fromLane="0" toLane="0" via=":2_1_0_7_0" dir="R" state="m"/>
    <connection from="2_1_7-2_1_0" to="2_1_0-1_1_5" fromLane="0" toLane="0" via=":2_1_0_8_0" dir="l" state="m"/>

    <connection from=":1_1_0_0" to="1_1_0-1_1_2" fromLane="0" toLane="0" dir="s" state="M"/>
    <connection from=":1_1_0_1" to="1_1_0-1_1_1" fromLane="0" toLane="0" dir="s" state="M"/>
    <connection from=":1_1_0_2" to="1_1_0-1_1_6" fromLane="0" toLane="0" via=":1_1_0_12_0" dir="s" state="m"/>
    <connection from=":1_1_0_12" to="1_1_0-1_1_6" fromLane="0" toLane="0" dir="s" state="M"/>
    <connection from=":1_1_0_3" to="1_1_0-1_1_5" fromLane="0" toLane="0" dir="s" state="M"/>
    <connection from=":1_1_0_4" to="1_1_0-1_1_2" fromLane="0" toLane="0" dir="s" state="M"/>
    <connection from=":1_1_0_5" to="1_1_0-1_1_1" fromLane="0" toLane="0" via=":1_1_0_13_0" dir="s" state="m"/>
    <connection from=":1_1_0_13" to="1_1_0-1_1_1" fromLane="0" toLane="0" dir="s" state="M"/>
    <connection from=":1_1_0_6" to="1_1_0-1_1_6" fromLane="0" toLane="0" dir="s" state="M"/>
    <connection from=":1_1_0_7" to="1_1_0-1_1_5" fromLane="0" toLane="0" dir="s" state="M"/>
    <connection from=":1_1_0_8" to="1_1_0-1_1_2" fromLane="0" toLane="0" via=":1_1_0_14_0" dir="s" state="m"/>
    <connection from=":1_1_0_14" to="1_1_0-1_1_2" fromLane="0" toLane="0" dir="s" state="M"/>
    <connection from=":1_1_0_9" to="1_1_0-1_1_1" fromLane="0" toLane="0" dir="s" state="M"/>
    <connection from=":1_1_0_10" to="1_1_0-1_1_6" fromLane="0" toLane="0" dir="s" state="M"/>
    <connection from=":1_1_0_11" to="1_1_0-1_1_5" fromLane="0" toLane="0" via=":1_1_0_15_0" dir="s" state="m"/>
    <connection from=":1_1_0_15" to="1_1_0-1_1_5" fromLane="0" toLane="0" dir="s" state="M"/>
    <connection from=":1_1_5_0" to="1_1_5-1_1_0" fromLane="0" toLane="0" dir="s" state="M"/>
    <connection from=":1_1_5_1" to="1_1_5-2_1_0" fromLane="0" toLane="0" dir="s" state="M"/>
    <connection from=":2_1_0_0" to="2_1_0-1_1_5" fromLane="0" toLane="0" dir="s" state="M"/>
    <connection from=":2_1_0_1" to="2_1_0-2_1_7" fromLane="0" toLane="0" dir="s" state="M"/>
    <connection from=":2_1_0_2" to="2_1_0-2_1_5" fromLane="0" toLane="0" dir="s" state="M"/>
    <connection from=":2_1_0_3" to="2_1_0-2_1_4" fromLane="0" toLane="0" dir="s" state="M"/>
    <connection from=":2_1_0_4" to="2_1_0-1_1_5" fromLane="0" toLane="0" dir="s" state="M"/>
    <connection from=":2_1_0_5" to="2_1_0-2_1_7" fromLane="0" toLane="0" via=":2_1_0_12_0" dir="s" state="m"/>
    <connection from=":2_1_0_12" to="2_1_0-2_1_7" fromLane="0" toLane="0" dir="s" state="M"/>
    <connection from=":2_1_0_6" to="2_1_0-2_1_5" fromLane="0" toLane="0" dir="s" state="M"/>
    <connection from=":2_1_0_7" to="2_1_0-2_1_4" fromLane="0" toLane="0" dir="s" state="M"/>
    <connection from=":2_1_0_8" to="2_1_0-1_1_5" fromLane="0" toLane="0" dir="s" state="M"/>
    <connection from=":2_1_0_9" to="2_1_0-2_1_7" fromLane="0" toLane="0" dir="s" state="M"/>
    <connection from=":2_1_0_10" to="2_1_0-2_1_5" fromLane="0" toLane="0" dir="s" state="M"/>
    <connection from=":2_1_0_11" to="2_1_0-2_1_4" fromLane="0" toLane="0" via=":2_1_0_13_0" dir="s" state="m"/>
    <connection from=":2_1_0_13" to="2_1_0-2_1_4" fromLane="0" toLane="0" dir="s" state="M"/>

</net>
