<?xml version="1.0" encoding="UTF-8"?>
<connections xmlns:xsi="http://www.w3.org/2001/XMLSchema-instance" xsi:noNamespaceSchemaLocation="http://sumo.dlr.de/xsd/connections_file.xsd">
	<connection from="1_1_0-1_1_5" to="1_1_5-2_1_0" />
	<connection from="2_1_0-1_1_5" to="1_1_5-1_1_0" />
<!--Generated by District-->
</connections>
