<?xml version="1.0" encoding="UTF-8"?>
<edges xmlns:xsi="http://www.w3.org/2001/XMLSchema-instance" xsi:noNamespaceSchemaLocation="http://sumo.dlr.de/xsd/edges_file.xsd">
	<edge id="1_1_1-1_1_0" from="1_1_1" to="1_1_0" type="district.default" />
	<edge id="1_1_0-1_1_1" from="1_1_0" to="1_1_1" type="district.default" />
	<edge id="1_1_2-1_1_0" from="1_1_2" to="1_1_0" type="district.default" />
	<edge id="1_1_0-1_1_2" from="1_1_0" to="1_1_2" type="district.default" />
	<edge id="1_1_5-1_1_0" from="1_1_5" to="1_1_0" type="district.default" />
	<edge id="1_1_0-1_1_5" from="1_1_0" to="1_1_5" type="district.default" />
	<edge id="1_1_6-1_1_0" from="1_1_6" to="1_1_0" type="district.default" />
	<edge id="1_1_0-1_1_6" from="1_1_0" to="1_1_6" type="district.default" />
	<edge id="1_1_5-2_1_0" from="1_1_5" to="2_1_0" type="district.default" />
	<edge id="2_1_0-1_1_5" from="2_1_0" to="1_1_5" type="district.default" />
	<edge id="2_1_4-2_1_0" from="2_1_4" to="2_1_0" type="district.default" />
	<edge id="2_1_0-2_1_4" from="2_1_0" to="2_1_4" type="district.default" />
	<edge id="2_1_5-2_1_0" from="2_1_5" to="2_1_0" type="district.default" />
	<edge id="2_1_0-2_1_5" from="2_1_0" to="2_1_5" type="district.default" />
	<edge id="2_1_7-2_1_0" from="2_1_7" to="2_1_0" type="district.default" />
	<edge id="2_1_0-2_1_7" from="2_1_0" to="2_1_7" type="district.default" />
<!--Generated by District-->
</edges>
