<routes>
<vType id="typeCar" accel="0.8" decel="4.5" sigma="0.5" length="5" minGap="2.5" maxSpeed="25" guiShape="passenger"/>
<vType id="typeBus" accel="0.8" decel="4.5" sigma="0.5" length="17" minGap="3" maxSpeed="25" guiShape="bus"/>

<route id="eastSouth" edges="2:0 0:1 1:5 5:6" />
<route id="eastWest" edges="2:0 0:1 1:3 3:7" />
<route id="westSouth" edges="7:3 3:1 1:5 5:6" />
<route id="westEast" edges="7:3 3:1 1:0 0:2" />
<route id="southEast" edges="6:5 5:1 1:0 0:2" />
<route id="southWest" edges="6:5 5:1 1:3 3:7" />

    <vehicle id="0" type="typeCar" route="westEast" depart="0" />
    <vehicle id="1" type="typeCar" route="southEast" depart="1" />
    <vehicle id="2" type="typeCar" route="westEast" depart="13" />
    <vehicle id="3" type="typeCar" route="southEast" depart="13" />
    <vehicle id="4" type="typeCar" route="eastWest" depart="15" />
    <vehicle id="5" type="typeCar" route="westEast" depart="17" />
    <vehicle id="6" type="typeCar" route="westEast" depart="22" />
    <vehicle id="7" type="typeCar" route="westEast" depart="24" />
    <vehicle id="8" type="typeCar" route="eastWest" depart="27" />
    <vehicle id="9" type="typeCar" route="southWest" depart="28" />
    <vehicle id="10" type="typeCar" route="westEast" depart="32" />
    <vehicle id="11" type="typeCar" route="westEast" depart="35" />
    <vehicle id="12" type="typeCar" route="westEast" depart="37" />
    <vehicle id="13" type="typeCar" route="eastSouth" depart="47" />
    <vehicle id="14" type="typeCar" route="eastSouth" depart="51" />
    <vehicle id="15" type="typeCar" route="eastWest" depart="53" />
    <vehicle id="16" type="typeCar" route="eastWest" depart="57" />
    <vehicle id="17" type="typeCar" route="westSouth" depart="66" />
    <vehicle id="18" type="typeCar" route="eastSouth" depart="67" />
    <vehicle id="19" type="typeCar" route="westSouth" depart="67" />
    <vehicle id="20" type="typeCar" route="westSouth" depart="69" />
    <vehicle id="21" type="typeCar" route="eastWest" depart="70" />
    <vehicle id="22" type="typeCar" route="westEast" depart="70" />
    <vehicle id="23" type="typeCar" route="southWest" depart="70" />
    <vehicle id="24" type="typeCar" route="eastWest" depart="71" />
    <vehicle id="25" type="typeCar" route="eastSouth" depart="72" />
    <vehicle id="26" type="typeCar" route="southWest" depart="78" />
    <vehicle id="27" type="typeCar" route="eastSouth" depart="80" />
    <vehicle id="28" type="typeCar" route="westEast" depart="81" />
    <vehicle id="29" type="typeCar" route="eastSouth" depart="83" />
    <vehicle id="30" type="typeCar" route="westEast" depart="86" />
    <vehicle id="31" type="typeCar" route="westEast" depart="88" />
    <vehicle id="32" type="typeCar" route="westSouth" depart="89" />
    <vehicle id="33" type="typeCar" route="westEast" depart="89" />
    <vehicle id="34" type="typeCar" route="westEast" depart="90" />
    <vehicle id="35" type="typeCar" route="eastWest" depart="93" />
    <vehicle id="36" type="typeCar" route="westEast" depart="98" />
    <vehicle id="37" type="typeCar" route="westEast" depart="99" />
    <vehicle id="38" type="typeCar" route="westEast" depart="112" />
    <vehicle id="39" type="typeCar" route="westEast" depart="113" />
    <vehicle id="40" type="typeCar" route="southEast" depart="114" />
    <vehicle id="41" type="typeCar" route="eastWest" depart="117" />
    <vehicle id="42" type="typeCar" route="eastWest" depart="120" />
    <vehicle id="43" type="typeCar" route="southEast" depart="127" />
    <vehicle id="44" type="typeCar" route="westEast" depart="131" />
    <vehicle id="45" type="typeCar" route="eastWest" depart="143" />
    <vehicle id="46" type="typeCar" route="eastSouth" depart="145" />
    <vehicle id="47" type="typeCar" route="westEast" depart="148" />
    <vehicle id="48" type="typeCar" route="southEast" depart="158" />
    <vehicle id="49" type="typeCar" route="westEast" depart="159" />
    <vehicle id="50" type="typeCar" route="westSouth" depart="162" />
    <vehicle id="51" type="typeCar" route="westEast" depart="162" />
    <vehicle id="52" type="typeCar" route="westEast" depart="165" />
    <vehicle id="53" type="typeCar" route="westEast" depart="166" />
    <vehicle id="54" type="typeCar" route="eastSouth" depart="167" />
    <vehicle id="55" type="typeCar" route="westEast" depart="167" />
    <vehicle id="56" type="typeCar" route="westEast" depart="169" />
    <vehicle id="57" type="typeCar" route="westEast" depart="172" />
    <vehicle id="58" type="typeCar" route="eastWest" depart="180" />
    <vehicle id="59" type="typeCar" route="eastWest" depart="181" />
    <vehicle id="60" type="typeCar" route="westSouth" depart="182" />
    <vehicle id="61" type="typeCar" route="westEast" depart="185" />
    <vehicle id="62" type="typeCar" route="southEast" depart="188" />
    <vehicle id="63" type="typeCar" route="eastWest" depart="190" />
    <vehicle id="64" type="typeCar" route="southEast" depart="190" />
    <vehicle id="65" type="typeCar" route="eastWest" depart="191" />
    <vehicle id="66" type="typeCar" route="eastSouth" depart="194" />
    <vehicle id="67" type="typeCar" route="westEast" depart="195" />
    <vehicle id="68" type="typeCar" route="westEast" depart="200" />
    <vehicle id="69" type="typeCar" route="southWest" depart="202" />
    <vehicle id="70" type="typeCar" route="westEast" depart="211" />
    <vehicle id="71" type="typeCar" route="eastWest" depart="215" />
    <vehicle id="72" type="typeCar" route="eastWest" depart="218" />
    <vehicle id="73" type="typeCar" route="westSouth" depart="218" />
    <vehicle id="74" type="typeCar" route="westEast" depart="225" />
    <vehicle id="75" type="typeCar" route="southEast" depart="227" />
    <vehicle id="76" type="typeCar" route="eastWest" depart="237" />
    <vehicle id="77" type="typeCar" route="westEast" depart="240" />
    <vehicle id="78" type="typeCar" route="westEast" depart="241" />
    <vehicle id="79" type="typeCar" route="westEast" depart="243" />
    <vehicle id="80" type="typeCar" route="westSouth" depart="244" />
    <vehicle id="81" type="typeCar" route="westEast" depart="250" />
    <vehicle id="82" type="typeCar" route="westEast" depart="252" />
    <vehicle id="83" type="typeCar" route="westEast" depart="254" />
    <vehicle id="84" type="typeCar" route="westEast" depart="255" />
    <vehicle id="85" type="typeCar" route="eastSouth" depart="260" />
    <vehicle id="86" type="typeCar" route="westSouth" depart="262" />
    <vehicle id="87" type="typeCar" route="westEast" depart="262" />
    <vehicle id="88" type="typeCar" route="eastWest" depart="269" />
    <vehicle id="89" type="typeCar" route="eastSouth" depart="274" />
    <vehicle id="90" type="typeCar" route="eastWest" depart="274" />
    <vehicle id="91" type="typeCar" route="westEast" depart="284" />
    <vehicle id="92" type="typeCar" route="eastWest" depart="291" />
    <vehicle id="93" type="typeCar" route="westEast" depart="292" />
    <vehicle id="94" type="typeCar" route="eastWest" depart="296" />
    <vehicle id="95" type="typeCar" route="eastSouth" depart="297" />
    <vehicle id="96" type="typeCar" route="westEast" depart="299" />
    <vehicle id="97" type="typeCar" route="westSouth" depart="302" />
    <vehicle id="98" type="typeCar" route="eastWest" depart="304" />
    <vehicle id="99" type="typeCar" route="westSouth" depart="307" />
    <vehicle id="100" type="typeCar" route="westEast" depart="309" />
    <vehicle id="101" type="typeCar" route="eastWest" depart="311" />
    <vehicle id="102" type="typeCar" route="eastSouth" depart="312" />
    <vehicle id="103" type="typeCar" route="eastSouth" depart="315" />
    <vehicle id="104" type="typeCar" route="eastWest" depart="322" />
    <vehicle id="105" type="typeCar" route="eastWest" depart="325" />
    <vehicle id="106" type="typeCar" route="eastWest" depart="329" />
    <vehicle id="107" type="typeCar" route="eastWest" depart="330" />
    <vehicle id="108" type="typeCar" route="southWest" depart="330" />
    <vehicle id="109" type="typeCar" route="westEast" depart="339" />
    <vehicle id="110" type="typeCar" route="eastWest" depart="345" />
    <vehicle id="111" type="typeCar" route="westSouth" depart="346" />
    <vehicle id="112" type="typeCar" route="eastWest" depart="347" />
    <vehicle id="113" type="typeCar" route="eastWest" depart="351" />
    <vehicle id="114" type="typeCar" route="eastWest" depart="362" />
    <vehicle id="115" type="typeCar" route="southEast" depart="364" />
    <vehicle id="116" type="typeCar" route="westEast" depart="367" />
    <vehicle id="117" type="typeCar" route="eastWest" depart="368" />
    <vehicle id="118" type="typeCar" route="westEast" depart="368" />
    <vehicle id="119" type="typeCar" route="westEast" depart="373" />
    <vehicle id="120" type="typeCar" route="westSouth" depart="377" />
    <vehicle id="121" type="typeCar" route="westEast" depart="378" />
    <vehicle id="122" type="typeCar" route="westEast" depart="383" />
    <vehicle id="123" type="typeCar" route="eastSouth" depart="385" />
    <vehicle id="124" type="typeCar" route="westEast" depart="386" />
    <vehicle id="125" type="typeCar" route="westEast" depart="388" />
    <vehicle id="126" type="typeCar" route="westEast" depart="392" />
    <vehicle id="127" type="typeCar" route="westEast" depart="394" />
    <vehicle id="128" type="typeCar" route="eastWest" depart="395" />
    <vehicle id="129" type="typeCar" route="southEast" depart="396" />
    <vehicle id="130" type="typeCar" route="eastWest" depart="422" />
    <vehicle id="131" type="typeCar" route="eastWest" depart="424" />
    <vehicle id="132" type="typeCar" route="eastWest" depart="426" />
    <vehicle id="133" type="typeCar" route="westEast" depart="428" />
    <vehicle id="134" type="typeCar" route="eastWest" depart="431" />
    <vehicle id="135" type="typeCar" route="westSouth" depart="440" />
    <vehicle id="136" type="typeCar" route="eastWest" depart="441" />
    <vehicle id="137" type="typeCar" route="westEast" depart="442" />
    <vehicle id="138" type="typeCar" route="westSouth" depart="448" />
    <vehicle id="139" type="typeCar" route="eastWest" depart="449" />
    <vehicle id="140" type="typeCar" route="eastWest" depart="451" />
    <vehicle id="141" type="typeCar" route="westSouth" depart="452" />
    <vehicle id="142" type="typeCar" route="eastWest" depart="453" />
    <vehicle id="143" type="typeCar" route="eastWest" depart="456" />
    <vehicle id="144" type="typeCar" route="eastWest" depart="459" />
    <vehicle id="145" type="typeCar" route="eastWest" depart="463" />
    <vehicle id="146" type="typeCar" route="southWest" depart="463" />
    <vehicle id="147" type="typeCar" route="westEast" depart="467" />
    <vehicle id="148" type="typeCar" route="eastSouth" depart="468" />
    <vehicle id="149" type="typeCar" route="eastWest" depart="469" />
    <vehicle id="150" type="typeCar" route="westEast" depart="474" />
    <vehicle id="151" type="typeCar" route="westEast" depart="479" />
    <vehicle id="152" type="typeCar" route="southWest" depart="482" />
    <vehicle id="153" type="typeCar" route="eastSouth" depart="483" />
    <vehicle id="154" type="typeCar" route="westSouth" depart="483" />
    <vehicle id="155" type="typeCar" route="eastWest" depart="488" />
    <vehicle id="156" type="typeCar" route="westEast" depart="499" />
    <vehicle id="157" type="typeCar" route="eastWest" depart="501" />
    <vehicle id="158" type="typeCar" route="westEast" depart="501" />
    <vehicle id="159" type="typeCar" route="westEast" depart="509" />
    <vehicle id="160" type="typeCar" route="southEast" depart="511" />
    <vehicle id="161" type="typeCar" route="eastSouth" depart="517" />
    <vehicle id="162" type="typeCar" route="westEast" depart="519" />
    <vehicle id="163" type="typeCar" route="eastWest" depart="521" />
    <vehicle id="164" type="typeCar" route="westSouth" depart="522" />
    <vehicle id="165" type="typeCar" route="westEast" depart="523" />
    <vehicle id="166" type="typeCar" route="eastWest" depart="526" />
    <vehicle id="167" type="typeCar" route="westEast" depart="526" />
    <vehicle id="168" type="typeCar" route="westSouth" depart="534" />
    <vehicle id="169" type="typeCar" route="westSouth" depart="540" />
    <vehicle id="170" type="typeCar" route="westEast" depart="541" />
    <vehicle id="171" type="typeCar" route="westEast" depart="545" />
    <vehicle id="172" type="typeCar" route="westSouth" depart="549" />
    <vehicle id="173" type="typeCar" route="eastSouth" depart="550" />
    <vehicle id="174" type="typeCar" route="eastSouth" depart="554" />
    <vehicle id="175" type="typeCar" route="eastSouth" depart="555" />
    <vehicle id="176" type="typeCar" route="westEast" depart="555" />
    <vehicle id="177" type="typeCar" route="westEast" depart="556" />
    <vehicle id="178" type="typeCar" route="westEast" depart="560" />
    <vehicle id="179" type="typeCar" route="eastWest" depart="562" />
    <vehicle id="180" type="typeCar" route="eastWest" depart="563" />
    <vehicle id="181" type="typeCar" route="eastWest" depart="564" />
    <vehicle id="182" type="typeCar" route="westEast" depart="565" />
    <vehicle id="183" type="typeCar" route="westSouth" depart="566" />
    <vehicle id="184" type="typeCar" route="eastWest" depart="567" />
    <vehicle id="185" type="typeCar" route="eastSouth" depart="572" />
    <vehicle id="186" type="typeCar" route="southWest" depart="573" />
    <vehicle id="187" type="typeCar" route="eastSouth" depart="575" />
    <vehicle id="188" type="typeCar" route="westSouth" depart="580" />
    <vehicle id="189" type="typeCar" route="eastWest" depart="581" />
    <vehicle id="190" type="typeCar" route="westEast" depart="581" />
    <vehicle id="191" type="typeCar" route="westEast" depart="582" />
    <vehicle id="192" type="typeCar" route="eastSouth" depart="583" />
    <vehicle id="193" type="typeCar" route="eastSouth" depart="585" />
    <vehicle id="194" type="typeCar" route="eastWest" depart="593" />
    <vehicle id="195" type="typeCar" route="southWest" depart="593" />
    <vehicle id="196" type="typeCar" route="westEast" depart="594" />
    <vehicle id="197" type="typeCar" route="southWest" depart="595" />
    <vehicle id="198" type="typeCar" route="westEast" depart="601" />
    <vehicle id="199" type="typeCar" route="eastSouth" depart="603" />
    <vehicle id="200" type="typeCar" route="westEast" depart="604" />
    <vehicle id="201" type="typeCar" route="westEast" depart="606" />
    <vehicle id="202" type="typeCar" route="westEast" depart="607" />
    <vehicle id="203" type="typeCar" route="southWest" depart="607" />
    <vehicle id="204" type="typeCar" route="eastSouth" depart="611" />
    <vehicle id="205" type="typeCar" route="southWest" depart="618" />
    <vehicle id="206" type="typeCar" route="eastWest" depart="619" />
    <vehicle id="207" type="typeCar" route="westSouth" depart="625" />
    <vehicle id="208" type="typeCar" route="southEast" depart="626" />
    <vehicle id="209" type="typeCar" route="westSouth" depart="636" />
    <vehicle id="210" type="typeCar" route="eastWest" depart="641" />
    <vehicle id="211" type="typeCar" route="eastWest" depart="646" />
    <vehicle id="212" type="typeCar" route="westEast" depart="648" />
    <vehicle id="213" type="typeCar" route="eastSouth" depart="651" />
    <vehicle id="214" type="typeCar" route="westSouth" depart="654" />
    <vehicle id="215" type="typeCar" route="westEast" depart="655" />
    <vehicle id="216" type="typeCar" route="eastWest" depart="661" />
    <vehicle id="217" type="typeCar" route="westEast" depart="662" />
    <vehicle id="218" type="typeCar" route="eastWest" depart="663" />
    <vehicle id="219" type="typeCar" route="eastSouth" depart="667" />
    <vehicle id="220" type="typeCar" route="westEast" depart="673" />
    <vehicle id="221" type="typeCar" route="eastWest" depart="676" />
    <vehicle id="222" type="typeCar" route="westSouth" depart="676" />
    <vehicle id="223" type="typeCar" route="westEast" depart="680" />
    <vehicle id="224" type="typeCar" route="westEast" depart="682" />
    <vehicle id="225" type="typeCar" route="eastSouth" depart="684" />
    <vehicle id="226" type="typeCar" route="westSouth" depart="686" />
    <vehicle id="227" type="typeCar" route="eastWest" depart="691" />
    <vehicle id="228" type="typeCar" route="westEast" depart="692" />
    <vehicle id="229" type="typeCar" route="westSouth" depart="696" />
    <vehicle id="230" type="typeCar" route="southEast" depart="700" />
    <vehicle id="231" type="typeCar" route="eastWest" depart="701" />
    <vehicle id="232" type="typeCar" route="westSouth" depart="712" />
    <vehicle id="233" type="typeCar" route="southEast" depart="716" />
    <vehicle id="234" type="typeCar" route="eastWest" depart="719" />
    <vehicle id="235" type="typeCar" route="southEast" depart="719" />
    <vehicle id="236" type="typeCar" route="westEast" depart="720" />
    <vehicle id="237" type="typeCar" route="southEast" depart="729" />
    <vehicle id="238" type="typeCar" route="eastWest" depart="730" />
    <vehicle id="239" type="typeCar" route="eastSouth" depart="737" />
    <vehicle id="240" type="typeCar" route="eastWest" depart="737" />
    <vehicle id="241" type="typeCar" route="westSouth" depart="739" />
    <vehicle id="242" type="typeCar" route="westEast" depart="741" />
    <vehicle id="243" type="typeCar" route="westSouth" depart="745" />
    <vehicle id="244" type="typeCar" route="eastWest" depart="747" />
    <vehicle id="245" type="typeCar" route="eastSouth" depart="749" />
    <vehicle id="246" type="typeCar" route="southEast" depart="750" />
    <vehicle id="247" type="typeCar" route="westEast" depart="752" />
    <vehicle id="248" type="typeCar" route="eastWest" depart="754" />
    <vehicle id="249" type="typeCar" route="eastSouth" depart="757" />
    <vehicle id="250" type="typeCar" route="westEast" depart="761" />
    <vehicle id="251" type="typeCar" route="westSouth" depart="764" />
    <vehicle id="252" type="typeCar" route="westEast" depart="764" />
    <vehicle id="253" type="typeCar" route="westEast" depart="767" />
    <vehicle id="254" type="typeCar" route="westEast" depart="776" />
    <vehicle id="255" type="typeCar" route="eastWest" depart="777" />
    <vehicle id="256" type="typeCar" route="westEast" depart="780" />
    <vehicle id="257" type="typeCar" route="westSouth" depart="789" />
    <vehicle id="258" type="typeCar" route="eastWest" depart="796" />
    <vehicle id="259" type="typeCar" route="eastWest" depart="798" />
    <vehicle id="260" type="typeCar" route="westEast" depart="808" />
    <vehicle id="261" type="typeCar" route="southEast" depart="812" />
    <vehicle id="262" type="typeCar" route="eastWest" depart="815" />
    <vehicle id="263" type="typeCar" route="westSouth" depart="816" />
    <vehicle id="264" type="typeCar" route="westEast" depart="816" />
    <vehicle id="265" type="typeCar" route="eastSouth" depart="818" />
    <vehicle id="266" type="typeCar" route="westSouth" depart="819" />
    <vehicle id="267" type="typeCar" route="eastWest" depart="821" />
    <vehicle id="268" type="typeCar" route="westEast" depart="827" />
    <vehicle id="269" type="typeCar" route="eastSouth" depart="830" />
    <vehicle id="270" type="typeCar" route="eastSouth" depart="831" />
    <vehicle id="271" type="typeCar" route="southEast" depart="832" />
    <vehicle id="272" type="typeCar" route="eastWest" depart="833" />
    <vehicle id="273" type="typeCar" route="eastWest" depart="838" />
    <vehicle id="274" type="typeCar" route="eastWest" depart="839" />
    <vehicle id="275" type="typeCar" route="southWest" depart="839" />
    <vehicle id="276" type="typeCar" route="westSouth" depart="842" />
    <vehicle id="277" type="typeCar" route="eastWest" depart="844" />
    <vehicle id="278" type="typeCar" route="eastWest" depart="845" />
    <vehicle id="279" type="typeCar" route="westEast" depart="845" />
    <vehicle id="280" type="typeCar" route="westEast" depart="846" />
    <vehicle id="281" type="typeCar" route="westEast" depart="847" />
    <vehicle id="282" type="typeCar" route="westEast" depart="849" />
    <vehicle id="283" type="typeCar" route="westEast" depart="854" />
    <vehicle id="284" type="typeCar" route="eastWest" depart="867" />
    <vehicle id="285" type="typeCar" route="westEast" depart="869" />
    <vehicle id="286" type="typeCar" route="eastWest" depart="871" />
    <vehicle id="287" type="typeCar" route="southEast" depart="873" />
    <vehicle id="288" type="typeCar" route="southWest" depart="873" />
    <vehicle id="289" type="typeCar" route="eastSouth" depart="874" />
    <vehicle id="290" type="typeCar" route="westEast" depart="875" />
    <vehicle id="291" type="typeCar" route="southEast" depart="875" />
    <vehicle id="292" type="typeCar" route="westEast" depart="877" />
    <vehicle id="293" type="typeCar" route="westEast" depart="879" />
    <vehicle id="294" type="typeCar" route="southWest" depart="888" />
    <vehicle id="295" type="typeCar" route="westEast" depart="892" />
    <vehicle id="296" type="typeCar" route="westSouth" depart="893" />
    <vehicle id="297" type="typeCar" route="westEast" depart="893" />
    <vehicle id="298" type="typeCar" route="westEast" depart="894" />
    <vehicle id="299" type="typeCar" route="eastSouth" depart="899" />
    <vehicle id="300" type="typeCar" route="eastWest" depart="899" />
    <vehicle id="301" type="typeCar" route="eastWest" depart="900" />
    <vehicle id="302" type="typeCar" route="westEast" depart="901" />
    <vehicle id="303" type="typeCar" route="westEast" depart="902" />
    <vehicle id="304" type="typeCar" route="eastWest" depart="904" />
    <vehicle id="305" type="typeCar" route="westEast" depart="906" />
    <vehicle id="306" type="typeCar" route="eastWest" depart="913" />
    <vehicle id="307" type="typeCar" route="westEast" depart="914" />
    <vehicle id="308" type="typeCar" route="westEast" depart="915" />
    <vehicle id="309" type="typeCar" route="westEast" depart="928" />
    <vehicle id="310" type="typeCar" route="westSouth" depart="932" />
    <vehicle id="311" type="typeCar" route="westSouth" depart="934" />
    <vehicle id="312" type="typeCar" route="southEast" depart="934" />
    <vehicle id="313" type="typeCar" route="westEast" depart="939" />
    <vehicle id="314" type="typeCar" route="eastWest" depart="943" />
    <vehicle id="315" type="typeCar" route="westEast" depart="943" />
    <vehicle id="316" type="typeCar" route="westEast" depart="946" />
    <vehicle id="317" type="typeCar" route="eastWest" depart="949" />
    <vehicle id="318" type="typeCar" route="westEast" depart="950" />
    <vehicle id="319" type="typeCar" route="westEast" depart="953" />
    <vehicle id="320" type="typeCar" route="southWest" depart="960" />
    <vehicle id="321" type="typeCar" route="eastWest" depart="976" />
    <vehicle id="322" type="typeCar" route="westEast" depart="977" />
    <vehicle id="323" type="typeCar" route="eastWest" depart="978" />
    <vehicle id="324" type="typeCar" route="eastSouth" depart="984" />
    <vehicle id="325" type="typeCar" route="westEast" depart="985" />
    <vehicle id="326" type="typeCar" route="eastWest" depart="987" />
    <vehicle id="327" type="typeCar" route="westEast" depart="989" />
    <vehicle id="328" type="typeCar" route="westSouth" depart="992" />
    <vehicle id="329" type="typeCar" route="westEast" depart="994" />
    <vehicle id="330" type="typeCar" route="westEast" depart="999" />
    <vehicle id="331" type="typeCar" route="eastWest" depart="1004" />
    <vehicle id="332" type="typeCar" route="eastWest" depart="1008" />
    <vehicle id="333" type="typeCar" route="eastWest" depart="1010" />
    <vehicle id="334" type="typeCar" route="westEast" depart="1011" />
    <vehicle id="335" type="typeCar" route="eastSouth" depart="1015" />
    <vehicle id="336" type="typeCar" route="southWest" depart="1016" />
    <vehicle id="337" type="typeCar" route="westEast" depart="1022" />
    <vehicle id="338" type="typeCar" route="eastSouth" depart="1027" />
    <vehicle id="339" type="typeCar" route="eastSouth" depart="1030" />
    <vehicle id="340" type="typeCar" route="westEast" depart="1031" />
    <vehicle id="341" type="typeCar" route="eastWest" depart="1032" />
    <vehicle id="342" type="typeCar" route="westEast" depart="1037" />
    <vehicle id="343" type="typeCar" route="eastWest" depart="1039" />
    <vehicle id="344" type="typeCar" route="westEast" depart="1045" />
    <vehicle id="345" type="typeCar" route="westSouth" depart="1047" />
    <vehicle id="346" type="typeCar" route="westEast" depart="1047" />
    <vehicle id="347" type="typeCar" route="westEast" depart="1052" />
    <vehicle id="348" type="typeCar" route="westEast" depart="1056" />
    <vehicle id="349" type="typeCar" route="westEast" depart="1062" />
    <vehicle id="350" type="typeCar" route="westEast" depart="1066" />
    <vehicle id="351" type="typeCar" route="westEast" depart="1069" />
    <vehicle id="352" type="typeCar" route="eastWest" depart="1071" />
    <vehicle id="353" type="typeCar" route="westEast" depart="1072" />
    <vehicle id="354" type="typeCar" route="eastSouth" depart="1074" />
    <vehicle id="355" type="typeCar" route="eastWest" depart="1075" />
    <vehicle id="356" type="typeCar" route="eastWest" depart="1080" />
    <vehicle id="357" type="typeCar" route="eastWest" depart="1083" />
    <vehicle id="358" type="typeCar" route="westEast" depart="1083" />
    <vehicle id="359" type="typeCar" route="westSouth" depart="1084" />
    <vehicle id="360" type="typeCar" route="eastWest" depart="1088" />
    <vehicle id="361" type="typeCar" route="westEast" depart="1089" />
    <vehicle id="362" type="typeCar" route="eastWest" depart="1090" />
    <vehicle id="363" type="typeCar" route="eastWest" depart="1091" />
    <vehicle id="364" type="typeCar" route="westSouth" depart="1092" />
    <vehicle id="365" type="typeCar" route="eastWest" depart="1094" />
    <vehicle id="366" type="typeCar" route="southWest" depart="1095" />
    <vehicle id="367" type="typeCar" route="southEast" depart="1109" />
    <vehicle id="368" type="typeCar" route="eastWest" depart="1114" />
    <vehicle id="369" type="typeCar" route="westSouth" depart="1127" />
    <vehicle id="370" type="typeCar" route="eastWest" depart="1130" />
    <vehicle id="371" type="typeCar" route="westEast" depart="1137" />
    <vehicle id="372" type="typeCar" route="eastWest" depart="1143" />
    <vehicle id="373" type="typeCar" route="southWest" depart="1143" />
    <vehicle id="374" type="typeCar" route="eastSouth" depart="1147" />
    <vehicle id="375" type="typeCar" route="westEast" depart="1156" />
    <vehicle id="376" type="typeCar" route="eastWest" depart="1157" />
    <vehicle id="377" type="typeCar" route="westEast" depart="1161" />
    <vehicle id="378" type="typeCar" route="westEast" depart="1162" />
    <vehicle id="379" type="typeCar" route="westEast" depart="1163" />
    <vehicle id="380" type="typeCar" route="westSouth" depart="1164" />
    <vehicle id="381" type="typeCar" route="eastWest" depart="1168" />
    <vehicle id="382" type="typeCar" route="westSouth" depart="1168" />
    <vehicle id="383" type="typeCar" route="westSouth" depart="1169" />
    <vehicle id="384" type="typeCar" route="westEast" depart="1171" />
    <vehicle id="385" type="typeCar" route="eastWest" depart="1175" />
    <vehicle id="386" type="typeCar" route="westEast" depart="1175" />
    <vehicle id="387" type="typeCar" route="westEast" depart="1176" />
    <vehicle id="388" type="typeCar" route="westEast" depart="1180" />
    <vehicle id="389" type="typeCar" route="westSouth" depart="1184" />
    <vehicle id="390" type="typeCar" route="westSouth" depart="1187" />
    <vehicle id="391" type="typeCar" route="eastWest" depart="1189" />
    <vehicle id="392" type="typeCar" route="westEast" depart="1198" />
    <vehicle id="393" type="typeCar" route="westEast" depart="1201" />
    <vehicle id="394" type="typeCar" route="eastSouth" depart="1202" />
    <vehicle id="395" type="typeCar" route="westEast" depart="1207" />
    <vehicle id="396" type="typeCar" route="westEast" depart="1211" />
    <vehicle id="397" type="typeCar" route="westEast" depart="1223" />
    <vehicle id="398" type="typeCar" route="eastWest" depart="1224" />
    <vehicle id="399" type="typeCar" route="southWest" depart="1225" />
    <vehicle id="400" type="typeCar" route="westEast" depart="1226" />
    <vehicle id="401" type="typeCar" route="southWest" depart="1228" />
    <vehicle id="402" type="typeCar" route="westEast" depart="1236" />
    <vehicle id="403" type="typeCar" route="westEast" depart="1239" />
    <vehicle id="404" type="typeCar" route="eastSouth" depart="1246" />
    <vehicle id="405" type="typeCar" route="eastWest" depart="1246" />
    <vehicle id="406" type="typeCar" route="westEast" depart="1246" />
    <vehicle id="407" type="typeCar" route="southEast" depart="1251" />
    <vehicle id="408" type="typeCar" route="westEast" depart="1252" />
    <vehicle id="409" type="typeCar" route="eastWest" depart="1261" />
    <vehicle id="410" type="typeCar" route="westEast" depart="1265" />
    <vehicle id="411" type="typeCar" route="eastSouth" depart="1272" />
    <vehicle id="412" type="typeCar" route="eastWest" depart="1272" />
    <vehicle id="413" type="typeCar" route="westEast" depart="1272" />
    <vehicle id="414" type="typeCar" route="southEast" depart="1278" />
    <vehicle id="415" type="typeCar" route="eastWest" depart="1281" />
    <vehicle id="416" type="typeCar" route="eastSouth" depart="1287" />
    <vehicle id="417" type="typeCar" route="southWest" depart="1289" />
    <vehicle id="418" type="typeCar" route="southEast" depart="1291" />