
<edges>
	<edge id="0:2" from="0" to="2" type="uMajor" /> 
	<edge id="0:1" from="0" to="1" type="uMajor" />
	<edge id="1:5" from="1" to="5" type="uMinor" /> 
	<edge id="1:3" from="1" to="3" type="uMajor" /> 
	<edge id="3:7" from="3" to="7" type="uMajor" /> 
	<edge id="5:6" from="5" to="6" type="uMinor" /> 

	<edge id="2:0" to="0" from="2" type="uMajor" /> 
	<edge id="1:0" to="0" from="1" type="uMajor" />
	<edge id="5:1" to="1" from="5" type="uMinor" /> 
	<edge id="3:1" to="1" from="3" type="uMajor" /> 
	<edge id="7:3" to="3" from="7" type="uMajor" /> 
	<edge id="6:5" to="5" from="6" type="uMinor" /> 
</edges>
