<?xml version="1.0" encoding="UTF-8"?>

<!-- generated on Tue Mar 28 18:07:20 2017 by SUMO netconvert Version 0.29.0
<?xml version="1.0" encoding="UTF-8"?>

<configuration xmlns:xsi="http://www.w3.org/2001/XMLSchema-instance" xsi:noNamespaceSchemaLocation="http://sumo.dlr.de/xsd/netconvertConfiguration.xsd">

    <input>
        <node-files value="model.nod.xml"/>
        <edge-files value="model.edg.xml"/>
    </input>

    <output>
        <output-file value="model.net.xml"/>
    </output>

    <report>
        <verbose value="true"/>
    </report>

</configuration>
-->

<net version="0.27" xmlns:xsi="http://www.w3.org/2001/XMLSchema-instance" xsi:noNamespaceSchemaLocation="http://sumo.dlr.de/xsd/net_file.xsd">

    <location netOffset="0.00,100.00" convBoundary="0.00,0.00,150.00,100.00" origBoundary="0.00,-100.00,150.00,0.00" projParameter="!"/>

    <edge id=":1_1_0_0" function="internal">
        <lane id=":1_1_0_0_0" index="0" speed="13.90" length="5.00" shape="48.35,54.75 48.16,53.39 47.58,52.43 46.61,51.84 45.25,51.65"/>
    </edge>
    <edge id=":1_1_0_1" function="internal">
        <lane id=":1_1_0_1_0" index="0" speed="13.90" length="10.32" shape="48.35,54.75 48.75,51.95 49.95,49.95 51.95,48.75 54.75,48.35"/>
    </edge>
    <edge id=":1_1_0_2" function="internal">
        <lane id=":1_1_0_2_0" index="0" speed="13.90" length="4.82" shape="48.35,54.75 49.18,53.51 50.00,53.10 50.83,53.51 51.65,54.75"/>
    </edge>
    <edge id=":1_1_0_3" function="internal">
        <lane id=":1_1_0_3_0" index="0" speed="13.90" length="5.00" shape="54.75,51.65 53.39,51.84 52.43,52.42 51.84,53.39 51.65,54.75"/>
    </edge>
    <edge id=":1_1_0_4" function="internal">
        <lane id=":1_1_0_4_0" index="0" speed="13.90" length="9.50" shape="54.75,51.65 45.25,51.65"/>
    </edge>
    <edge id=":1_1_0_5" function="internal">
        <lane id=":1_1_0_5_0" index="0" speed="13.90" length="2.41" shape="54.75,51.65 53.51,50.82 53.10,50.00"/>
    </edge>
    <edge id=":1_1_0_9" function="internal">
        <lane id=":1_1_0_9_0" index="0" speed="13.90" length="2.41" shape="53.10,50.00 53.51,49.17 54.75,48.35"/>
    </edge>
    <edge id=":1_1_0_6" function="internal">
        <lane id=":1_1_0_6_0" index="0" speed="13.90" length="9.50" shape="45.25,48.35 54.75,48.35"/>
    </edge>
    <edge id=":1_1_0_7" function="internal">
        <lane id=":1_1_0_7_0" index="0" speed="13.90" length="5.28" shape="45.25,48.35 48.05,48.75 50.05,49.95 50.11,50.05"/>
    </edge>
    <edge id=":1_1_0_8" function="internal">
        <lane id=":1_1_0_8_0" index="0" speed="13.90" length="2.41" shape="45.25,48.35 46.49,49.18 46.90,50.00"/>
    </edge>
    <edge id=":1_1_0_10" function="internal">
        <lane id=":1_1_0_10_0" index="0" speed="13.90" length="5.04" shape="50.11,50.05 51.25,51.95 51.65,54.75"/>
    </edge>
    <edge id=":1_1_0_11" function="internal">
        <lane id=":1_1_0_11_0" index="0" speed="13.90" length="2.41" shape="46.90,50.00 46.49,50.83 45.25,51.65"/>
    </edge>
    <edge id=":1_1_1_0" function="internal">
        <lane id=":1_1_1_0_0" index="0" speed="13.90" length="4.82" shape="0.00,51.65 -1.24,50.82 -1.65,50.00 -1.24,49.17 0.00,48.35"/>
    </edge>
    <edge id=":1_1_3_0" function="internal">
        <lane id=":1_1_3_0_0" index="0" speed="13.90" length="4.82" shape="51.65,100.00 50.82,101.24 50.00,101.65 49.17,101.24 48.35,100.00"/>
    </edge>
    <edge id=":1_1_5_0" function="internal">
        <lane id=":1_1_5_0_0" index="0" speed="13.90" length="0.10" shape="100.00,51.65 100.00,51.65"/>
    </edge>
    <edge id=":1_1_5_1" function="internal">
        <lane id=":1_1_5_1_0" index="0" speed="13.90" length="2.41" shape="100.00,51.65 98.76,50.82 98.35,50.00"/>
    </edge>
    <edge id=":1_1_5_4" function="internal">
        <lane id=":1_1_5_4_0" index="0" speed="13.90" length="2.41" shape="98.35,50.00 98.76,49.17 100.00,48.35"/>
    </edge>
    <edge id=":1_1_5_2" function="internal">
        <lane id=":1_1_5_2_0" index="0" speed="13.90" length="0.10" shape="100.00,48.35 100.00,48.35"/>
    </edge>
    <edge id=":1_1_5_3" function="internal">
        <lane id=":1_1_5_3_0" index="0" speed="13.90" length="2.41" shape="100.00,48.35 101.24,49.18 101.65,50.00"/>
    </edge>
    <edge id=":1_1_5_5" function="internal">
        <lane id=":1_1_5_5_0" index="0" speed="13.90" length="2.41" shape="101.65,50.00 101.24,50.83 100.00,51.65"/>
    </edge>
    <edge id=":2_1_0_0" function="internal">
        <lane id=":2_1_0_0_0" index="0" speed="13.90" length="5.00" shape="148.35,54.75 148.16,53.39 147.57,52.43 146.61,51.84 145.25,51.65"/>
    </edge>
    <edge id=":2_1_0_1" function="internal">
        <lane id=":2_1_0_1_0" index="0" speed="13.90" length="9.50" shape="148.35,54.75 148.35,45.25"/>
    </edge>
    <edge id=":2_1_0_2" function="internal">
        <lane id=":2_1_0_2_0" index="0" speed="13.90" length="2.41" shape="148.35,54.75 149.17,53.51 150.00,53.10"/>
    </edge>
    <edge id=":2_1_0_9" function="internal">
        <lane id=":2_1_0_9_0" index="0" speed="13.90" length="2.41" shape="150.00,53.10 150.82,53.51 151.65,54.75"/>
    </edge>
    <edge id=":2_1_0_3" function="internal">
        <lane id=":2_1_0_3_0" index="0" speed="13.90" length="9.50" shape="151.65,45.25 151.65,54.75"/>
    </edge>
    <edge id=":2_1_0_4" function="internal">
        <lane id=":2_1_0_4_0" index="0" speed="13.90" length="5.28" shape="151.65,45.25 151.25,48.05 150.05,50.05 149.95,50.11"/>
    </edge>
    <edge id=":2_1_0_5" function="internal">
        <lane id=":2_1_0_5_0" index="0" speed="13.90" length="2.41" shape="151.65,45.25 150.83,46.49 150.00,46.90"/>
    </edge>
    <edge id=":2_1_0_10" function="internal">
        <lane id=":2_1_0_10_0" index="0" speed="13.90" length="5.04" shape="149.95,50.11 148.05,51.25 145.25,51.65"/>
    </edge>
    <edge id=":2_1_0_11" function="internal">
        <lane id=":2_1_0_11_0" index="0" speed="13.90" length="2.41" shape="150.00,46.90 149.18,46.49 148.35,45.25"/>
    </edge>
    <edge id=":2_1_0_6" function="internal">
        <lane id=":2_1_0_6_0" index="0" speed="13.90" length="5.00" shape="145.25,48.35 146.61,48.16 147.57,47.58 148.16,46.61 148.35,45.25"/>
    </edge>
    <edge id=":2_1_0_7" function="internal">
        <lane id=":2_1_0_7_0" index="0" speed="13.90" length="10.32" shape="145.25,48.35 148.05,48.75 150.05,49.95 151.25,51.95 151.65,54.75"/>
    </edge>
    <edge id=":2_1_0_8" function="internal">
        <lane id=":2_1_0_8_0" index="0" speed="13.90" length="2.69" shape="145.25,48.35 146.49,49.18 146.90,50.00 146.77,50.25"/>
    </edge>
    <edge id=":2_1_0_12" function="internal">
        <lane id=":2_1_0_12_0" index="0" speed="13.90" length="2.13" shape="146.77,50.25 146.49,50.83 145.25,51.65"/>
    </edge>
    <edge id=":2_1_3_0" function="internal">
        <lane id=":2_1_3_0_0" index="0" speed="13.90" length="4.82" shape="151.65,100.00 150.83,101.24 150.00,101.65 149.18,101.24 148.35,100.00"/>
    </edge>
    <edge id=":2_1_7_0" function="internal">
        <lane id=":2_1_7_0_0" index="0" speed="13.90" length="4.82" shape="148.35,0.00 149.17,-1.24 150.00,-1.65 150.82,-1.24 151.65,0.00"/>
    </edge>

    <edge id="1_1_0-1_1_1" from="1_1_0" to="1_1_1" priority="-1">
        <lane id="1_1_0-1_1_1_0" index="0" speed="13.90" length="45.25" shape="45.25,51.65 0.00,51.65"/>
    </edge>
    <edge id="1_1_0-1_1_3" from="1_1_0" to="1_1_3" priority="-1">
        <lane id="1_1_0-1_1_3_0" index="0" speed="13.90" length="45.25" shape="51.65,54.75 51.65,100.00"/>
    </edge>
    <edge id="1_1_0-1_1_5" from="1_1_0" to="1_1_5" priority="-1">
        <lane id="1_1_0-1_1_5_0" index="0" speed="13.90" length="45.25" shape="54.75,48.35 100.00,48.35"/>
    </edge>
    <edge id="1_1_1-1_1_0" from="1_1_1" to="1_1_0" priority="-1">
        <lane id="1_1_1-1_1_0_0" index="0" speed="13.90" length="45.25" shape="0.00,48.35 45.25,48.35"/>
    </edge>
    <edge id="1_1_3-1_1_0" from="1_1_3" to="1_1_0" priority="-1">
        <lane id="1_1_3-1_1_0_0" index="0" speed="13.90" length="45.25" shape="48.35,100.00 48.35,54.75"/>
    </edge>
    <edge id="1_1_5-1_1_0" from="1_1_5" to="1_1_0" priority="-1">
        <lane id="1_1_5-1_1_0_0" index="0" speed="13.90" length="45.25" shape="100.00,51.65 54.75,51.65"/>
    </edge>
    <edge id="1_1_5-2_1_0" from="1_1_5" to="2_1_0" priority="-1">
        <lane id="1_1_5-2_1_0_0" index="0" speed="13.90" length="45.25" shape="100.00,48.35 145.25,48.35"/>
    </edge>
    <edge id="2_1_0-1_1_5" from="2_1_0" to="1_1_5" priority="-1">
        <lane id="2_1_0-1_1_5_0" index="0" speed="13.90" length="45.25" shape="145.25,51.65 100.00,51.65"/>
    </edge>
    <edge id="2_1_0-2_1_3" from="2_1_0" to="2_1_3" priority="-1">
        <lane id="2_1_0-2_1_3_0" index="0" speed="13.90" length="45.25" shape="151.65,54.75 151.65,100.00"/>
    </edge>
    <edge id="2_1_0-2_1_7" from="2_1_0" to="2_1_7" priority="-1">
        <lane id="2_1_0-2_1_7_0" index="0" speed="13.90" length="45.25" shape="148.35,45.25 148.35,0.00"/>
    </edge>
    <edge id="2_1_3-2_1_0" from="2_1_3" to="2_1_0" priority="-1">
        <lane id="2_1_3-2_1_0_0" index="0" speed="13.90" length="45.25" shape="148.35,100.00 148.35,54.75"/>
    </edge>
    <edge id="2_1_7-2_1_0" from="2_1_7" to="2_1_0" priority="-1">
        <lane id="2_1_7-2_1_0_0" index="0" speed="13.90" length="45.25" shape="151.65,0.00 151.65,45.25"/>
    </edge>

    <tlLogic id="2_1_0" type="static" programID="0" offset="0">
        <phase duration="36" state="GGgGggrrr"/>
        <phase duration="4" state="yygyggrrr"/>
        <phase duration="6" state="rrGrGGrrr"/>
        <phase duration="4" state="rryryyrrr"/>
        <phase duration="36" state="GrrrrrGGg"/>
        <phase duration="4" state="yrrrrryyy"/>
    </tlLogic>

    <junction id="1_1_0" type="priority" x="50.00" y="50.00" incLanes="1_1_3-1_1_0_0 1_1_5-1_1_0_0 1_1_1-1_1_0_0" intLanes=":1_1_0_0_0 :1_1_0_1_0 :1_1_0_2_0 :1_1_0_3_0 :1_1_0_4_0 :1_1_0_9_0 :1_1_0_6_0 :1_1_0_10_0 :1_1_0_11_0" shape="46.75,54.75 53.25,54.75 54.75,53.25 54.75,46.75 45.25,46.75 45.25,53.25">
        <request index="0" response="000010000" foes="100010000" cont="0"/>
        <request index="1" response="011010000" foes="011110000" cont="0"/>
        <request index="2" response="010001000" foes="010001000" cont="0"/>
        <request index="3" response="000000000" foes="010000100" cont="0"/>
        <request index="4" response="000000000" foes="110000011" cont="0"/>
        <request index="5" response="001000010" foes="001000010" cont="1"/>
        <request index="6" response="000000000" foes="000100010" cont="0"/>
        <request index="7" response="000011000" foes="000011110" cont="1"/>
        <request index="8" response="000010001" foes="000010001" cont="1"/>
    </junction>
    <junction id="1_1_1" type="priority" x="0.00" y="50.00" incLanes="1_1_0-1_1_1_0" intLanes=":1_1_1_0_0" shape="0.00,49.95 0.00,53.25 0.00,50.05">
        <request index="0" response="0" foes="0" cont="0"/>
    </junction>
    <junction id="1_1_3" type="priority" x="50.00" y="100.00" incLanes="1_1_0-1_1_3_0" intLanes=":1_1_3_0_0" shape="49.95,100.00 53.25,100.00 50.05,100.00">
        <request index="0" response="0" foes="0" cont="0"/>
    </junction>
    <junction id="1_1_5" type="priority" x="100.00" y="50.00" incLanes="2_1_0-1_1_5_0 1_1_0-1_1_5_0" intLanes=":1_1_5_0_0 :1_1_5_4_0 :1_1_5_2_0 :1_1_5_5_0" shape="100.00,53.25 100.00,46.75 100.00,53.25">
        <request index="0" response="0000" foes="1000" cont="0"/>
        <request index="1" response="0100" foes="0100" cont="1"/>
        <request index="2" response="0000" foes="0010" cont="0"/>
        <request index="3" response="0001" foes="0001" cont="1"/>
    </junction>
    <junction id="2_1_0" type="traffic_light" x="150.00" y="50.00" incLanes="2_1_3-2_1_0_0 2_1_7-2_1_0_0 1_1_5-2_1_0_0" intLanes=":2_1_0_0_0 :2_1_0_1_0 :2_1_0_9_0 :2_1_0_3_0 :2_1_0_10_0 :2_1_0_11_0 :2_1_0_6_0 :2_1_0_7_0 :2_1_0_12_0" shape="146.75,54.75 153.25,54.75 153.25,45.25 146.75,45.25 145.25,46.75 145.25,53.25">
        <request index="0" response="000000000" foes="100010000" cont="0"/>
        <request index="1" response="000000000" foes="011110000" cont="0"/>
        <request index="2" response="010001000" foes="010001000" cont="1"/>
        <request index="3" response="000000000" foes="010000100" cont="0"/>
        <request index="4" response="000000011" foes="110000011" cont="1"/>
        <request index="5" response="001000010" foes="001000010" cont="1"/>
        <request index="6" response="000000010" foes="000100010" cont="0"/>
        <request index="7" response="000011010" foes="000011110" cont="0"/>
        <request index="8" response="000010001" foes="000010001" cont="1"/>
    </junction>
    <junction id="2_1_3" type="priority" x="150.00" y="100.00" incLanes="2_1_0-2_1_3_0" intLanes=":2_1_3_0_0" shape="149.95,100.00 153.25,100.00 150.05,100.00">
        <request index="0" response="0" foes="0" cont="0"/>
    </junction>
    <junction id="2_1_7" type="priority" x="150.00" y="0.00" incLanes="2_1_0-2_1_7_0" intLanes=":2_1_7_0_0" shape="150.05,0.00 146.75,0.00 149.95,0.00">
        <request index="0" response="0" foes="0" cont="0"/>
    </junction>

    <junction id=":1_1_0_9_0" type="internal" x="53.10" y="50.00" incLanes=":1_1_0_5_0 1_1_1-1_1_0_0 1_1_3-1_1_0_0" intLanes=":1_1_0_1_0 :1_1_0_6_0"/>
    <junction id=":1_1_0_10_0" type="internal" x="50.11" y="50.05" incLanes=":1_1_0_7_0 1_1_5-1_1_0_0" intLanes=":1_1_0_1_0 :1_1_0_2_0 :1_1_0_3_0 :1_1_0_4_0"/>
    <junction id=":1_1_0_11_0" type="internal" x="46.90" y="50.00" incLanes=":1_1_0_8_0 1_1_3-1_1_0_0 1_1_5-1_1_0_0" intLanes=":1_1_0_0_0 :1_1_0_4_0"/>
    <junction id=":1_1_5_4_0" type="internal" x="98.35" y="50.00" incLanes=":1_1_5_1_0 1_1_0-1_1_5_0" intLanes=":1_1_5_2_0"/>
    <junction id=":1_1_5_5_0" type="internal" x="101.65" y="50.00" incLanes=":1_1_5_3_0 2_1_0-1_1_5_0" intLanes=":1_1_5_0_0"/>
    <junction id=":2_1_0_9_0" type="internal" x="150.00" y="53.10" incLanes=":2_1_0_2_0 1_1_5-2_1_0_0 2_1_7-2_1_0_0" intLanes=":2_1_0_3_0 :2_1_0_7_0"/>
    <junction id=":2_1_0_10_0" type="internal" x="149.95" y="50.11" incLanes=":2_1_0_4_0 2_1_3-2_1_0_0" intLanes=":2_1_0_0_0 :2_1_0_1_0 :2_1_0_7_0 :2_1_0_8_0"/>
    <junction id=":2_1_0_11_0" type="internal" x="150.00" y="46.90" incLanes=":2_1_0_5_0 1_1_5-2_1_0_0 2_1_3-2_1_0_0" intLanes=":2_1_0_1_0 :2_1_0_6_0"/>
    <junction id=":2_1_0_12_0" type="internal" x="146.77" y="50.25" incLanes=":2_1_0_8_0 2_1_3-2_1_0_0 2_1_7-2_1_0_0" intLanes=":2_1_0_0_0 :2_1_0_4_0"/>

    <connection from="1_1_0-1_1_1" to="1_1_1-1_1_0" fromLane="0" toLane="0" via=":1_1_1_0_0" dir="t" state="M"/>
    <connection from="1_1_0-1_1_3" to="1_1_3-1_1_0" fromLane="0" toLane="0" via=":1_1_3_0_0" dir="t" state="M"/>
    <connection from="1_1_0-1_1_5" to="1_1_5-2_1_0" fromLane="0" toLane="0" via=":1_1_5_2_0" dir="s" state="M"/>
    <connection from="1_1_0-1_1_5" to="1_1_5-1_1_0" fromLane="0" toLane="0" via=":1_1_5_3_0" dir="t" state="m"/>
    <connection from="1_1_1-1_1_0" to="1_1_0-1_1_5" fromLane="0" toLane="0" via=":1_1_0_6_0" dir="s" state="M"/>
    <connection from="1_1_1-1_1_0" to="1_1_0-1_1_3" fromLane="0" toLane="0" via=":1_1_0_7_0" dir="l" state="m"/>
    <connection from="1_1_1-1_1_0" to="1_1_0-1_1_1" fromLane="0" toLane="0" via=":1_1_0_8_0" dir="t" state="m"/>
    <connection from="1_1_3-1_1_0" to="1_1_0-1_1_1" fromLane="0" toLane="0" via=":1_1_0_0_0" dir="r" state="m"/>
    <connection from="1_1_3-1_1_0" to="1_1_0-1_1_5" fromLane="0" toLane="0" via=":1_1_0_1_0" dir="l" state="m"/>
    <connection from="1_1_3-1_1_0" to="1_1_0-1_1_3" fromLane="0" toLane="0" via=":1_1_0_2_0" dir="t" state="m"/>
    <connection from="1_1_5-1_1_0" to="1_1_0-1_1_3" fromLane="0" toLane="0" via=":1_1_0_3_0" dir="r" state="M"/>
    <connection from="1_1_5-1_1_0" to="1_1_0-1_1_1" fromLane="0" toLane="0" via=":1_1_0_4_0" dir="s" state="M"/>
    <connection from="1_1_5-1_1_0" to="1_1_0-1_1_5" fromLane="0" toLane="0" via=":1_1_0_5_0" dir="t" state="m"/>
    <connection from="1_1_5-2_1_0" to="2_1_0-2_1_7" fromLane="0" toLane="0" via=":2_1_0_6_0" tl="2_1_0" linkIndex="6" dir="r" state="o"/>
    <connection from="1_1_5-2_1_0" to="2_1_0-2_1_3" fromLane="0" toLane="0" via=":2_1_0_7_0" tl="2_1_0" linkIndex="7" dir="l" state="o"/>
    <connection from="1_1_5-2_1_0" to="2_1_0-1_1_5" fromLane="0" toLane="0" via=":2_1_0_8_0" tl="2_1_0" linkIndex="8" dir="t" state="o"/>
    <connection from="2_1_0-1_1_5" to="1_1_5-1_1_0" fromLane="0" toLane="0" via=":1_1_5_0_0" dir="s" state="M"/>
    <connection from="2_1_0-1_1_5" to="1_1_5-2_1_0" fromLane="0" toLane="0" via=":1_1_5_1_0" dir="t" state="m"/>
    <connection from="2_1_0-2_1_3" to="2_1_3-2_1_0" fromLane="0" toLane="0" via=":2_1_3_0_0" dir="t" state="M"/>
    <connection from="2_1_0-2_1_7" to="2_1_7-2_1_0" fromLane="0" toLane="0" via=":2_1_7_0_0" dir="t" state="M"/>
    <connection from="2_1_3-2_1_0" to="2_1_0-1_1_5" fromLane="0" toLane="0" via=":2_1_0_0_0" tl="2_1_0" linkIndex="0" dir="r" state="o"/>
    <connection from="2_1_3-2_1_0" to="2_1_0-2_1_7" fromLane="0" toLane="0" via=":2_1_0_1_0" tl="2_1_0" linkIndex="1" dir="s" state="o"/>
    <connection from="2_1_3-2_1_0" to="2_1_0-2_1_3" fromLane="0" toLane="0" via=":2_1_0_2_0" tl="2_1_0" linkIndex="2" dir="t" state="o"/>
    <connection from="2_1_7-2_1_0" to="2_1_0-2_1_3" fromLane="0" toLane="0" via=":2_1_0_3_0" tl="2_1_0" linkIndex="3" dir="s" state="o"/>
    <connection from="2_1_7-2_1_0" to="2_1_0-1_1_5" fromLane="0" toLane="0" via=":2_1_0_4_0" tl="2_1_0" linkIndex="4" dir="l" state="o"/>
    <connection from="2_1_7-2_1_0" to="2_1_0-2_1_7" fromLane="0" toLane="0" via=":2_1_0_5_0" tl="2_1_0" linkIndex="5" dir="t" state="o"/>

    <connection from=":1_1_0_0" to="1_1_0-1_1_1" fromLane="0" toLane="0" dir="s" state="M"/>
    <connection from=":1_1_0_1" to="1_1_0-1_1_5" fromLane="0" toLane="0" dir="s" state="M"/>
    <connection from=":1_1_0_2" to="1_1_0-1_1_3" fromLane="0" toLane="0" dir="s" state="M"/>
    <connection from=":1_1_0_3" to="1_1_0-1_1_3" fromLane="0" toLane="0" dir="s" state="M"/>
    <connection from=":1_1_0_4" to="1_1_0-1_1_1" fromLane="0" toLane="0" dir="s" state="M"/>
    <connection from=":1_1_0_5" to="1_1_0-1_1_5" fromLane="0" toLane="0" via=":1_1_0_9_0" dir="s" state="m"/>
    <connection from=":1_1_0_9" to="1_1_0-1_1_5" fromLane="0" toLane="0" dir="s" state="M"/>
    <connection from=":1_1_0_6" to="1_1_0-1_1_5" fromLane="0" toLane="0" dir="s" state="M"/>
    <connection from=":1_1_0_7" to="1_1_0-1_1_3" fromLane="0" toLane="0" via=":1_1_0_10_0" dir="s" state="m"/>
    <connection from=":1_1_0_10" to="1_1_0-1_1_3" fromLane="0" toLane="0" dir="s" state="M"/>
    <connection from=":1_1_0_8" to="1_1_0-1_1_1" fromLane="0" toLane="0" via=":1_1_0_11_0" dir="s" state="m"/>
    <connection from=":1_1_0_11" to="1_1_0-1_1_1" fromLane="0" toLane="0" dir="s" state="M"/>
    <connection from=":1_1_1_0" to="1_1_1-1_1_0" fromLane="0" toLane="0" dir="s" state="M"/>
    <connection from=":1_1_3_0" to="1_1_3-1_1_0" fromLane="0" toLane="0" dir="s" state="M"/>
    <connection from=":1_1_5_0" to="1_1_5-1_1_0" fromLane="0" toLane="0" dir="s" state="M"/>
    <connection from=":1_1_5_1" to="1_1_5-2_1_0" fromLane="0" toLane="0" via=":1_1_5_4_0" dir="s" state="m"/>
    <connection from=":1_1_5_4" to="1_1_5-2_1_0" fromLane="0" toLane="0" dir="s" state="M"/>
    <connection from=":1_1_5_2" to="1_1_5-2_1_0" fromLane="0" toLane="0" dir="s" state="M"/>
    <connection from=":1_1_5_3" to="1_1_5-1_1_0" fromLane="0" toLane="0" via=":1_1_5_5_0" dir="s" state="m"/>
    <connection from=":1_1_5_5" to="1_1_5-1_1_0" fromLane="0" toLane="0" dir="s" state="M"/>
    <connection from=":2_1_0_0" to="2_1_0-1_1_5" fromLane="0" toLane="0" dir="s" state="M"/>
    <connection from=":2_1_0_1" to="2_1_0-2_1_7" fromLane="0" toLane="0" dir="s" state="M"/>
    <connection from=":2_1_0_2" to="2_1_0-2_1_3" fromLane="0" toLane="0" via=":2_1_0_9_0" dir="s" state="m"/>
    <connection from=":2_1_0_9" to="2_1_0-2_1_3" fromLane="0" toLane="0" dir="s" state="M"/>
    <connection from=":2_1_0_3" to="2_1_0-2_1_3" fromLane="0" toLane="0" dir="s" state="M"/>
    <connection from=":2_1_0_4" to="2_1_0-1_1_5" fromLane="0" toLane="0" via=":2_1_0_10_0" dir="s" state="m"/>
    <connection from=":2_1_0_10" to="2_1_0-1_1_5" fromLane="0" toLane="0" dir="s" state="M"/>
    <connection from=":2_1_0_5" to="2_1_0-2_1_7" fromLane="0" toLane="0" via=":2_1_0_11_0" dir="s" state="m"/>
    <connection from=":2_1_0_11" to="2_1_0-2_1_7" fromLane="0" toLane="0" dir="s" state="M"/>
    <connection from=":2_1_0_6" to="2_1_0-2_1_7" fromLane="0" toLane="0" dir="s" state="M"/>
    <connection from=":2_1_0_7" to="2_1_0-2_1_3" fromLane="0" toLane="0" dir="s" state="M"/>
    <connection from=":2_1_0_8" to="2_1_0-1_1_5" fromLane="0" toLane="0" via=":2_1_0_12_0" dir="s" state="m"/>
    <connection from=":2_1_0_12" to="2_1_0-1_1_5" fromLane="0" toLane="0" dir="s" state="M"/>
    <connection from=":2_1_3_0" to="2_1_3-2_1_0" fromLane="0" toLane="0" dir="s" state="M"/>
    <connection from=":2_1_7_0" to="2_1_7-2_1_0" fromLane="0" toLane="0" dir="s" state="M"/>

</net>
