<?xml version="1.0" encoding="UTF-8"?>

<!-- generated on Mon Sep 18 16:19:59 2017 by SUMO netconvert Version 0.30.0
<?xml version="1.0" encoding="UTF-8"?>

<configuration xmlns:xsi="http://www.w3.org/2001/XMLSchema-instance" xsi:noNamespaceSchemaLocation="http://sumo.dlr.de/xsd/netconvertConfiguration.xsd">

    <input>
        <node-files value="model.nod.xml"/>
        <edge-files value="model.edg.xml"/>
        <connection-files value="model.con.xml"/>
        <type-files value="model.typ.xml"/>
    </input>

    <output>
        <output-file value="model.net.xml"/>
    </output>

    <processing>
        <no-turnarounds value="true"/>
    </processing>

    <report>
        <verbose value="true"/>
    </report>

</configuration>
-->

<net version="0.27" xmlns:xsi="http://www.w3.org/2001/XMLSchema-instance" xsi:noNamespaceSchemaLocation="http://sumo.dlr.de/xsd/net_file.xsd">

    <location netOffset="0.00,100.00" convBoundary="0.00,0.00,100.00,100.00" origBoundary="0.00,-100.00,100.00,0.00" projParameter="!"/>

    <type id="district.1.30" priority="10" numLanes="1" speed="13.40"/>
    <type id="district.1.40" priority="10" numLanes="1" speed="17.90"/>
    <type id="district.2.30" priority="10" numLanes="2" speed="13.40"/>
    <type id="district.2.40" priority="10" numLanes="2" speed="17.90"/>
    <type id="district.3.30" priority="10" numLanes="3" speed="13.40"/>
    <type id="district.3.40" priority="10" numLanes="3" speed="17.90"/>
    <type id="district.default" priority="10" numLanes="1" speed="13.40"/>

    <edge id=":1_1_0_0" function="internal">
        <lane id=":1_1_0_0_0" index="0" speed="13.40" length="5.00" shape="48.35,54.75 48.16,53.39 47.58,52.43 46.61,51.84 45.25,51.65"/>
    </edge>
    <edge id=":1_1_0_1" function="internal">
        <lane id=":1_1_0_1_0" index="0" speed="13.40" length="9.50" shape="48.35,54.75 48.35,45.25"/>
    </edge>
    <edge id=":1_1_0_2" function="internal">
        <lane id=":1_1_0_2_0" index="0" speed="13.40" length="5.28" shape="48.35,54.75 48.75,51.95 49.95,49.95 50.05,49.89"/>
    </edge>
    <edge id=":1_1_0_12" function="internal">
        <lane id=":1_1_0_12_0" index="0" speed="13.40" length="5.04" shape="50.05,49.89 51.95,48.75 54.75,48.35"/>
    </edge>
    <edge id=":1_1_0_3" function="internal">
        <lane id=":1_1_0_3_0" index="0" speed="13.40" length="5.00" shape="54.75,51.65 53.39,51.84 52.43,52.42 51.84,53.39 51.65,54.75"/>
    </edge>
    <edge id=":1_1_0_4" function="internal">
        <lane id=":1_1_0_4_0" index="0" speed="13.40" length="9.50" shape="54.75,51.65 45.25,51.65"/>
    </edge>
    <edge id=":1_1_0_5" function="internal">
        <lane id=":1_1_0_5_0" index="0" speed="13.40" length="5.28" shape="54.75,51.65 51.95,51.25 49.95,50.05 49.89,49.95"/>
    </edge>
    <edge id=":1_1_0_13" function="internal">
        <lane id=":1_1_0_13_0" index="0" speed="13.40" length="5.04" shape="49.89,49.95 48.75,48.05 48.35,45.25"/>
    </edge>
    <edge id=":1_1_0_6" function="internal">
        <lane id=":1_1_0_6_0" index="0" speed="13.40" length="5.00" shape="51.65,45.25 51.84,46.61 52.42,47.57 53.39,48.16 54.75,48.35"/>
    </edge>
    <edge id=":1_1_0_7" function="internal">
        <lane id=":1_1_0_7_0" index="0" speed="13.40" length="9.50" shape="51.65,45.25 51.65,54.75"/>
    </edge>
    <edge id=":1_1_0_8" function="internal">
        <lane id=":1_1_0_8_0" index="0" speed="13.40" length="5.28" shape="51.65,45.25 51.25,48.05 50.05,50.05 49.95,50.11"/>
    </edge>
    <edge id=":1_1_0_14" function="internal">
        <lane id=":1_1_0_14_0" index="0" speed="13.40" length="5.04" shape="49.95,50.11 48.05,51.25 45.25,51.65"/>
    </edge>
    <edge id=":1_1_0_9" function="internal">
        <lane id=":1_1_0_9_0" index="0" speed="13.40" length="5.00" shape="45.25,48.35 46.61,48.16 47.57,47.58 48.16,46.61 48.35,45.25"/>
    </edge>
    <edge id=":1_1_0_10" function="internal">
        <lane id=":1_1_0_10_0" index="0" speed="13.40" length="9.50" shape="45.25,48.35 54.75,48.35"/>
    </edge>
    <edge id=":1_1_0_11" function="internal">
        <lane id=":1_1_0_11_0" index="0" speed="13.40" length="5.28" shape="45.25,48.35 48.05,48.75 50.05,49.95 50.11,50.05"/>
    </edge>
    <edge id=":1_1_0_15" function="internal">
        <lane id=":1_1_0_15_0" index="0" speed="13.40" length="5.04" shape="50.11,50.05 51.25,51.95 51.65,54.75"/>
    </edge>

    <edge id="1_1_0-1_1_1" from="1_1_0" to="1_1_1" priority="10" type="district.default">
        <lane id="1_1_0-1_1_1_0" index="0" speed="13.40" length="45.25" shape="45.25,51.65 0.00,51.65"/>
    </edge>
    <edge id="1_1_0-1_1_3" from="1_1_0" to="1_1_3" priority="10" type="district.default">
        <lane id="1_1_0-1_1_3_0" index="0" speed="13.40" length="45.25" shape="51.65,54.75 51.65,100.00"/>
    </edge>
    <edge id="1_1_0-1_1_5" from="1_1_0" to="1_1_5" priority="10" type="district.default">
        <lane id="1_1_0-1_1_5_0" index="0" speed="13.40" length="45.25" shape="54.75,48.35 100.00,48.35"/>
    </edge>
    <edge id="1_1_0-1_1_7" from="1_1_0" to="1_1_7" priority="10" type="district.default">
        <lane id="1_1_0-1_1_7_0" index="0" speed="13.40" length="45.25" shape="48.35,45.25 48.35,0.00"/>
    </edge>
    <edge id="1_1_1-1_1_0" from="1_1_1" to="1_1_0" priority="10" type="district.default">
        <lane id="1_1_1-1_1_0_0" index="0" speed="13.40" length="45.25" shape="0.00,48.35 45.25,48.35"/>
    </edge>
    <edge id="1_1_3-1_1_0" from="1_1_3" to="1_1_0" priority="10" type="district.default">
        <lane id="1_1_3-1_1_0_0" index="0" speed="13.40" length="45.25" shape="48.35,100.00 48.35,54.75"/>
    </edge>
    <edge id="1_1_5-1_1_0" from="1_1_5" to="1_1_0" priority="10" type="district.default">
        <lane id="1_1_5-1_1_0_0" index="0" speed="13.40" length="45.25" shape="100.00,51.65 54.75,51.65"/>
    </edge>
    <edge id="1_1_7-1_1_0" from="1_1_7" to="1_1_0" priority="10" type="district.default">
        <lane id="1_1_7-1_1_0_0" index="0" speed="13.40" length="45.25" shape="51.65,0.00 51.65,45.25"/>
    </edge>

    <tlLogic id="1_1_0" type="static" programID="0" offset="0">
        <phase duration="31" state="GGgrrrGGgrrr"/>
        <phase duration="4" state="yygrrryygrrr"/>
        <phase duration="6" state="rrGrrrrrGrrr"/>
        <phase duration="4" state="rryrrrrryrrr"/>
        <phase duration="31" state="rrrGGgrrrGGg"/>
        <phase duration="4" state="rrryygrrryyg"/>
        <phase duration="6" state="rrrrrGrrrrrG"/>
        <phase duration="4" state="rrrrryrrrrry"/>
    </tlLogic>

    <junction id="1_1_0" type="traffic_light" x="50.00" y="50.00" incLanes="1_1_3-1_1_0_0 1_1_5-1_1_0_0 1_1_7-1_1_0_0 1_1_1-1_1_0_0" intLanes=":1_1_0_0_0 :1_1_0_1_0 :1_1_0_12_0 :1_1_0_3_0 :1_1_0_4_0 :1_1_0_13_0 :1_1_0_6_0 :1_1_0_7_0 :1_1_0_14_0 :1_1_0_9_0 :1_1_0_10_0 :1_1_0_15_0" shape="46.75,54.75 53.25,54.75 54.75,53.25 54.75,46.75 53.25,45.25 46.75,45.25 45.25,46.75 45.25,53.25">
        <request index="0" response="000000000000" foes="000100010000" cont="0"/>
        <request index="1" response="000000000000" foes="111100110000" cont="0"/>
        <request index="2" response="000011000000" foes="110011110000" cont="1"/>
        <request index="3" response="000010000000" foes="100010000000" cont="0"/>
        <request index="4" response="000110000111" foes="100110000111" cont="0"/>
        <request index="5" response="011110000110" foes="011110000110" cont="1"/>
        <request index="6" response="000000000000" foes="010000000100" cont="0"/>
        <request index="7" response="000000000000" foes="110000111100" cont="0"/>
        <request index="8" response="000000000011" foes="110000110011" cont="1"/>
        <request index="9" response="000000000010" foes="000000100010" cont="0"/>
        <request index="10" response="000111000110" foes="000111100110" cont="0"/>
        <request index="11" response="000110011110" foes="000110011110" cont="1"/>
    </junction>
    <junction id="1_1_1" type="dead_end" x="0.00" y="50.00" incLanes="1_1_0-1_1_1_0" intLanes="" shape="0.00,49.95 0.00,53.25 0.00,50.05"/>
    <junction id="1_1_3" type="dead_end" x="50.00" y="100.00" incLanes="1_1_0-1_1_3_0" intLanes="" shape="49.95,100.00 53.25,100.00 50.05,100.00"/>
    <junction id="1_1_5" type="dead_end" x="100.00" y="50.00" incLanes="1_1_0-1_1_5_0" intLanes="" shape="100.00,50.05 100.00,46.75 100.00,49.95"/>
    <junction id="1_1_7" type="dead_end" x="50.00" y="0.00" incLanes="1_1_0-1_1_7_0" intLanes="" shape="50.05,0.00 46.75,0.00 49.95,0.00"/>

    <junction id=":1_1_0_12_0" type="internal" x="50.05" y="49.89" incLanes=":1_1_0_2_0 1_1_7-1_1_0_0" intLanes=":1_1_0_4_0 :1_1_0_5_0 :1_1_0_6_0 :1_1_0_7_0 :1_1_0_10_0 :1_1_0_11_0"/>
    <junction id=":1_1_0_13_0" type="internal" x="49.89" y="49.95" incLanes=":1_1_0_5_0 1_1_1-1_1_0_0" intLanes=":1_1_0_1_0 :1_1_0_2_0 :1_1_0_7_0 :1_1_0_8_0 :1_1_0_9_0 :1_1_0_10_0"/>
    <junction id=":1_1_0_14_0" type="internal" x="49.95" y="50.11" incLanes=":1_1_0_8_0 1_1_3-1_1_0_0" intLanes=":1_1_0_0_0 :1_1_0_1_0 :1_1_0_4_0 :1_1_0_5_0 :1_1_0_10_0 :1_1_0_11_0"/>
    <junction id=":1_1_0_15_0" type="internal" x="50.11" y="50.05" incLanes=":1_1_0_11_0 1_1_5-1_1_0_0" intLanes=":1_1_0_1_0 :1_1_0_2_0 :1_1_0_3_0 :1_1_0_4_0 :1_1_0_7_0 :1_1_0_8_0"/>

    <connection from="1_1_1-1_1_0" to="1_1_0-1_1_7" fromLane="0" toLane="0" via=":1_1_0_9_0" tl="1_1_0" linkIndex="9" dir="r" state="o"/>
    <connection from="1_1_1-1_1_0" to="1_1_0-1_1_5" fromLane="0" toLane="0" via=":1_1_0_10_0" tl="1_1_0" linkIndex="10" dir="s" state="o"/>
    <connection from="1_1_1-1_1_0" to="1_1_0-1_1_3" fromLane="0" toLane="0" via=":1_1_0_11_0" tl="1_1_0" linkIndex="11" dir="l" state="o"/>
    <connection from="1_1_3-1_1_0" to="1_1_0-1_1_1" fromLane="0" toLane="0" via=":1_1_0_0_0" tl="1_1_0" linkIndex="0" dir="r" state="o"/>
    <connection from="1_1_3-1_1_0" to="1_1_0-1_1_7" fromLane="0" toLane="0" via=":1_1_0_1_0" tl="1_1_0" linkIndex="1" dir="s" state="o"/>
    <connection from="1_1_3-1_1_0" to="1_1_0-1_1_5" fromLane="0" toLane="0" via=":1_1_0_2_0" tl="1_1_0" linkIndex="2" dir="l" state="o"/>
    <connection from="1_1_5-1_1_0" to="1_1_0-1_1_3" fromLane="0" toLane="0" via=":1_1_0_3_0" tl="1_1_0" linkIndex="3" dir="r" state="o"/>
    <connection from="1_1_5-1_1_0" to="1_1_0-1_1_1" fromLane="0" toLane="0" via=":1_1_0_4_0" tl="1_1_0" linkIndex="4" dir="s" state="o"/>
    <connection from="1_1_5-1_1_0" to="1_1_0-1_1_7" fromLane="0" toLane="0" via=":1_1_0_5_0" tl="1_1_0" linkIndex="5" dir="l" state="o"/>
    <connection from="1_1_7-1_1_0" to="1_1_0-1_1_5" fromLane="0" toLane="0" via=":1_1_0_6_0" tl="1_1_0" linkIndex="6" dir="r" state="o"/>
    <connection from="1_1_7-1_1_0" to="1_1_0-1_1_3" fromLane="0" toLane="0" via=":1_1_0_7_0" tl="1_1_0" linkIndex="7" dir="s" state="o"/>
    <connection from="1_1_7-1_1_0" to="1_1_0-1_1_1" fromLane="0" toLane="0" via=":1_1_0_8_0" tl="1_1_0" linkIndex="8" dir="l" state="o"/>

    <connection from=":1_1_0_0" to="1_1_0-1_1_1" fromLane="0" toLane="0" dir="s" state="M"/>
    <connection from=":1_1_0_1" to="1_1_0-1_1_7" fromLane="0" toLane="0" dir="s" state="M"/>
    <connection from=":1_1_0_2" to="1_1_0-1_1_5" fromLane="0" toLane="0" via=":1_1_0_12_0" dir="s" state="m"/>
    <connection from=":1_1_0_12" to="1_1_0-1_1_5" fromLane="0" toLane="0" dir="s" state="M"/>
    <connection from=":1_1_0_3" to="1_1_0-1_1_3" fromLane="0" toLane="0" dir="s" state="M"/>
    <connection from=":1_1_0_4" to="1_1_0-1_1_1" fromLane="0" toLane="0" dir="s" state="M"/>
    <connection from=":1_1_0_5" to="1_1_0-1_1_7" fromLane="0" toLane="0" via=":1_1_0_13_0" dir="s" state="m"/>
    <connection from=":1_1_0_13" to="1_1_0-1_1_7" fromLane="0" toLane="0" dir="s" state="M"/>
    <connection from=":1_1_0_6" to="1_1_0-1_1_5" fromLane="0" toLane="0" dir="s" state="M"/>
    <connection from=":1_1_0_7" to="1_1_0-1_1_3" fromLane="0" toLane="0" dir="s" state="M"/>
    <connection from=":1_1_0_8" to="1_1_0-1_1_1" fromLane="0" toLane="0" via=":1_1_0_14_0" dir="s" state="m"/>
    <connection from=":1_1_0_14" to="1_1_0-1_1_1" fromLane="0" toLane="0" dir="s" state="M"/>
    <connection from=":1_1_0_9" to="1_1_0-1_1_7" fromLane="0" toLane="0" dir="s" state="M"/>
    <connection from=":1_1_0_10" to="1_1_0-1_1_5" fromLane="0" toLane="0" dir="s" state="M"/>
    <connection from=":1_1_0_11" to="1_1_0-1_1_3" fromLane="0" toLane="0" via=":1_1_0_15_0" dir="s" state="m"/>
    <connection from=":1_1_0_15" to="1_1_0-1_1_3" fromLane="0" toLane="0" dir="s" state="M"/>

</net>
