<?xml version="1.0" encoding="UTF-8"?>

<!-- generated on Tue Mar 28 18:09:56 2017 by SUMO netconvert Version 0.29.0
<?xml version="1.0" encoding="UTF-8"?>

<configuration xmlns:xsi="http://www.w3.org/2001/XMLSchema-instance" xsi:noNamespaceSchemaLocation="http://sumo.dlr.de/xsd/netconvertConfiguration.xsd">

    <input>
        <node-files value="model.nod.xml"/>
        <edge-files value="model.edg.xml"/>
    </input>

    <output>
        <output-file value="model.net.xml"/>
    </output>

    <report>
        <verbose value="true"/>
    </report>

</configuration>
-->

<net version="0.27" xmlns:xsi="http://www.w3.org/2001/XMLSchema-instance" xsi:noNamespaceSchemaLocation="http://sumo.dlr.de/xsd/net_file.xsd">

    <location netOffset="-50.00,500.00" convBoundary="0.00,0.00,450.00,500.00" origBoundary="50.00,-500.00,500.00,0.00" projParameter="!"/>

    <edge id=":1_2_0_0" function="internal">
        <lane id=":1_2_0_0_0" index="0" speed="13.90" length="4.82" shape="0.00,351.65 -1.24,350.83 -1.65,350.00 -1.24,349.18 0.00,348.35"/>
    </edge>
    <edge id=":1_2_5_0" function="internal">
        <lane id=":1_2_5_0_0" index="0" speed="13.90" length="0.10" shape="50.00,351.65 50.00,351.65"/>
    </edge>
    <edge id=":1_2_5_1" function="internal">
        <lane id=":1_2_5_1_0" index="0" speed="13.90" length="2.41" shape="50.00,351.65 48.76,350.83 48.35,350.00"/>
    </edge>
    <edge id=":1_2_5_4" function="internal">
        <lane id=":1_2_5_4_0" index="0" speed="13.90" length="2.41" shape="48.35,350.00 48.76,349.18 50.00,348.35"/>
    </edge>
    <edge id=":1_2_5_2" function="internal">
        <lane id=":1_2_5_2_0" index="0" speed="13.90" length="0.10" shape="50.00,348.35 50.00,348.35"/>
    </edge>
    <edge id=":1_2_5_3" function="internal">
        <lane id=":1_2_5_3_0" index="0" speed="13.90" length="2.41" shape="50.00,348.35 51.24,349.17 51.65,350.00"/>
    </edge>
    <edge id=":1_2_5_5" function="internal">
        <lane id=":1_2_5_5_0" index="0" speed="13.90" length="2.41" shape="51.65,350.00 51.24,350.82 50.00,351.65"/>
    </edge>
    <edge id=":1_4_0_0" function="internal">
        <lane id=":1_4_0_0_0" index="0" speed="13.90" length="7.90" shape="3.25,151.65 1.11,151.34 -0.43,150.43 -1.34,148.89 -1.65,146.75"/>
    </edge>
    <edge id=":1_4_0_1" function="internal">
        <lane id=":1_4_0_1_0" index="0" speed="13.90" length="2.80" shape="3.25,151.65 2.01,150.83 1.60,150.00 1.77,149.65"/>
    </edge>
    <edge id=":1_4_0_4" function="internal">
        <lane id=":1_4_0_4_0" index="0" speed="13.90" length="2.02" shape="1.77,149.65 2.01,149.18 3.25,148.35"/>
    </edge>
    <edge id=":1_4_0_2" function="internal">
        <lane id=":1_4_0_2_0" index="0" speed="13.90" length="2.58" shape="1.65,146.75 1.75,147.45 2.05,147.95 2.55,148.25 3.25,148.35"/>
    </edge>
    <edge id=":1_4_0_3" function="internal">
        <lane id=":1_4_0_3_0" index="0" speed="13.90" length="2.20" shape="1.65,146.75 0.83,147.99 0.19,148.31"/>
    </edge>
    <edge id=":1_4_0_5" function="internal">
        <lane id=":1_4_0_5_0" index="0" speed="13.90" length="2.62" shape="0.19,148.31 0.00,148.40 -0.83,147.99 -1.65,146.75"/>
    </edge>
    <edge id=":1_4_5_0" function="internal">
        <lane id=":1_4_5_0_0" index="0" speed="13.90" length="0.10" shape="50.00,151.65 50.00,151.65"/>
    </edge>
    <edge id=":1_4_5_1" function="internal">
        <lane id=":1_4_5_1_0" index="0" speed="13.90" length="2.41" shape="50.00,151.65 48.76,150.83 48.35,150.00"/>
    </edge>
    <edge id=":1_4_5_4" function="internal">
        <lane id=":1_4_5_4_0" index="0" speed="13.90" length="2.41" shape="48.35,150.00 48.76,149.18 50.00,148.35"/>
    </edge>
    <edge id=":1_4_5_2" function="internal">
        <lane id=":1_4_5_2_0" index="0" speed="13.90" length="0.10" shape="50.00,148.35 50.00,148.35"/>
    </edge>
    <edge id=":1_4_5_3" function="internal">
        <lane id=":1_4_5_3_0" index="0" speed="13.90" length="2.41" shape="50.00,148.35 51.24,149.17 51.65,150.00"/>
    </edge>
    <edge id=":1_4_5_5" function="internal">
        <lane id=":1_4_5_5_0" index="0" speed="13.90" length="2.41" shape="51.65,150.00 51.24,150.82 50.00,151.65"/>
    </edge>
    <edge id=":1_4_7_0" function="internal">
        <lane id=":1_4_7_0_0" index="0" speed="13.90" length="0.10" shape="-1.65,100.00 -1.65,100.00"/>
    </edge>
    <edge id=":1_4_7_1" function="internal">
        <lane id=":1_4_7_1_0" index="0" speed="13.90" length="2.41" shape="-1.65,100.00 -0.83,98.76 0.00,98.35"/>
    </edge>
    <edge id=":1_4_7_4" function="internal">
        <lane id=":1_4_7_4_0" index="0" speed="13.90" length="2.41" shape="0.00,98.35 0.83,98.76 1.65,100.00"/>
    </edge>
    <edge id=":1_4_7_2" function="internal">
        <lane id=":1_4_7_2_0" index="0" speed="13.90" length="0.10" shape="1.65,100.00 1.65,100.00"/>
    </edge>
    <edge id=":1_4_7_3" function="internal">
        <lane id=":1_4_7_3_0" index="0" speed="13.90" length="2.41" shape="1.65,100.00 0.83,101.24 0.00,101.65"/>
    </edge>
    <edge id=":1_4_7_5" function="internal">
        <lane id=":1_4_7_5_0" index="0" speed="13.90" length="2.41" shape="0.00,101.65 -0.83,101.24 -1.65,100.00"/>
    </edge>
    <edge id=":1_5_0_0" function="internal">
        <lane id=":1_5_0_0_0" index="0" speed="13.90" length="7.90" shape="-1.65,53.25 -1.34,51.11 -0.43,49.57 1.11,48.66 3.25,48.35"/>
    </edge>
    <edge id=":1_5_0_1" function="internal">
        <lane id=":1_5_0_1_0" index="0" speed="13.90" length="2.80" shape="-1.65,53.25 -0.83,52.01 0.00,51.60 0.35,51.77"/>
    </edge>
    <edge id=":1_5_0_4" function="internal">
        <lane id=":1_5_0_4_0" index="0" speed="13.90" length="2.02" shape="0.35,51.77 0.83,52.01 1.65,53.25"/>
    </edge>
    <edge id=":1_5_0_2" function="internal">
        <lane id=":1_5_0_2_0" index="0" speed="13.90" length="2.58" shape="3.25,51.65 2.55,51.75 2.05,52.05 1.75,52.55 1.65,53.25"/>
    </edge>
    <edge id=":1_5_0_3" function="internal">
        <lane id=":1_5_0_3_0" index="0" speed="13.90" length="2.20" shape="3.25,51.65 2.01,50.82 1.69,50.19"/>
    </edge>
    <edge id=":1_5_0_5" function="internal">
        <lane id=":1_5_0_5_0" index="0" speed="13.90" length="2.62" shape="1.69,50.19 1.60,50.00 2.01,49.17 3.25,48.35"/>
    </edge>
    <edge id=":1_5_5_0" function="internal">
        <lane id=":1_5_5_0_0" index="0" speed="13.90" length="0.10" shape="50.00,51.65 50.00,51.65"/>
    </edge>
    <edge id=":1_5_5_1" function="internal">
        <lane id=":1_5_5_1_0" index="0" speed="13.90" length="2.41" shape="50.00,51.65 48.76,50.82 48.35,50.00"/>
    </edge>
    <edge id=":1_5_5_4" function="internal">
        <lane id=":1_5_5_4_0" index="0" speed="13.90" length="2.41" shape="48.35,50.00 48.76,49.17 50.00,48.35"/>
    </edge>
    <edge id=":1_5_5_2" function="internal">
        <lane id=":1_5_5_2_0" index="0" speed="13.90" length="0.10" shape="50.00,48.35 50.00,48.35"/>
    </edge>
    <edge id=":1_5_5_3" function="internal">
        <lane id=":1_5_5_3_0" index="0" speed="13.90" length="2.41" shape="50.00,48.35 51.24,49.18 51.65,50.00"/>
    </edge>
    <edge id=":1_5_5_5" function="internal">
        <lane id=":1_5_5_5_0" index="0" speed="13.90" length="2.41" shape="51.65,50.00 51.24,50.83 50.00,51.65"/>
    </edge>
    <edge id=":2_1_0_0" function="internal">
        <lane id=":2_1_0_0_0" index="0" speed="13.90" length="9.50" shape="98.35,454.75 98.35,445.25"/>
    </edge>
    <edge id=":2_1_0_1" function="internal">
        <lane id=":2_1_0_1_0" index="0" speed="13.90" length="5.28" shape="98.35,454.75 98.75,451.95 99.95,449.95 100.05,449.89"/>
    </edge>
    <edge id=":2_1_0_2" function="internal">
        <lane id=":2_1_0_2_0" index="0" speed="13.90" length="2.41" shape="98.35,454.75 99.18,453.51 100.00,453.10"/>
    </edge>
    <edge id=":2_1_0_9" function="internal">
        <lane id=":2_1_0_9_0" index="0" speed="13.90" length="5.04" shape="100.05,449.89 101.95,448.75 104.75,448.35"/>
    </edge>
    <edge id=":2_1_0_10" function="internal">
        <lane id=":2_1_0_10_0" index="0" speed="13.90" length="2.41" shape="100.00,453.10 100.83,453.51 101.65,454.75"/>
    </edge>
    <edge id=":2_1_0_3" function="internal">
        <lane id=":2_1_0_3_0" index="0" speed="13.90" length="5.00" shape="104.75,451.65 103.39,451.84 102.43,452.42 101.84,453.39 101.65,454.75"/>
    </edge>
    <edge id=":2_1_0_4" function="internal">
        <lane id=":2_1_0_4_0" index="0" speed="13.90" length="10.32" shape="104.75,451.65 101.95,451.25 99.95,450.05 98.75,448.05 98.35,445.25"/>
    </edge>
    <edge id=":2_1_0_5" function="internal">
        <lane id=":2_1_0_5_0" index="0" speed="13.90" length="4.82" shape="104.75,451.65 103.51,450.83 103.10,450.00 103.51,449.18 104.75,448.35"/>
    </edge>
    <edge id=":2_1_0_6" function="internal">
        <lane id=":2_1_0_6_0" index="0" speed="13.90" length="5.00" shape="101.65,445.25 101.84,446.61 102.43,447.58 103.39,448.16 104.75,448.35"/>
    </edge>
    <edge id=":2_1_0_7" function="internal">
        <lane id=":2_1_0_7_0" index="0" speed="13.90" length="9.50" shape="101.65,445.25 101.65,454.75"/>
    </edge>
    <edge id=":2_1_0_8" function="internal">
        <lane id=":2_1_0_8_0" index="0" speed="13.90" length="2.41" shape="101.65,445.25 100.82,446.49 100.00,446.90"/>
    </edge>
    <edge id=":2_1_0_11" function="internal">
        <lane id=":2_1_0_11_0" index="0" speed="13.90" length="2.41" shape="100.00,446.90 99.17,446.49 98.35,445.25"/>
    </edge>
    <edge id=":2_1_3_0" function="internal">
        <lane id=":2_1_3_0_0" index="0" speed="13.90" length="4.82" shape="101.65,500.00 100.82,501.24 100.00,501.65 99.17,501.24 98.35,500.00"/>
    </edge>
    <edge id=":2_1_5_0" function="internal">
        <lane id=":2_1_5_0_0" index="0" speed="13.90" length="0.10" shape="150.00,451.65 150.00,451.65"/>
    </edge>
    <edge id=":2_1_5_1" function="internal">
        <lane id=":2_1_5_1_0" index="0" speed="13.90" length="2.41" shape="150.00,451.65 148.76,450.83 148.35,450.00"/>
    </edge>
    <edge id=":2_1_5_4" function="internal">
        <lane id=":2_1_5_4_0" index="0" speed="13.90" length="2.41" shape="148.35,450.00 148.76,449.18 150.00,448.35"/>
    </edge>
    <edge id=":2_1_5_2" function="internal">
        <lane id=":2_1_5_2_0" index="0" speed="13.90" length="0.10" shape="150.00,448.35 150.00,448.35"/>
    </edge>
    <edge id=":2_1_5_3" function="internal">
        <lane id=":2_1_5_3_0" index="0" speed="13.90" length="2.41" shape="150.00,448.35 151.24,449.17 151.65,450.00"/>
    </edge>
    <edge id=":2_1_5_5" function="internal">
        <lane id=":2_1_5_5_0" index="0" speed="13.90" length="2.41" shape="151.65,450.00 151.24,450.82 150.00,451.65"/>
    </edge>
    <edge id=":2_1_7_0" function="internal">
        <lane id=":2_1_7_0_0" index="0" speed="13.90" length="0.10" shape="98.35,400.00 98.35,400.00"/>
    </edge>
    <edge id=":2_1_7_1" function="internal">
        <lane id=":2_1_7_1_0" index="0" speed="13.90" length="2.41" shape="98.35,400.00 99.18,398.76 100.00,398.35"/>
    </edge>
    <edge id=":2_1_7_4" function="internal">
        <lane id=":2_1_7_4_0" index="0" speed="13.90" length="2.41" shape="100.00,398.35 100.83,398.76 101.65,400.00"/>
    </edge>
    <edge id=":2_1_7_2" function="internal">
        <lane id=":2_1_7_2_0" index="0" speed="13.90" length="0.10" shape="101.65,400.00 101.65,400.00"/>
    </edge>
    <edge id=":2_1_7_3" function="internal">
        <lane id=":2_1_7_3_0" index="0" speed="13.90" length="2.41" shape="101.65,400.00 100.82,401.24 100.00,401.65"/>
    </edge>
    <edge id=":2_1_7_5" function="internal">
        <lane id=":2_1_7_5_0" index="0" speed="13.90" length="2.41" shape="100.00,401.65 99.17,401.24 98.35,400.00"/>
    </edge>
    <edge id=":2_2_0_0" function="internal">
        <lane id=":2_2_0_0_0" index="0" speed="13.90" length="5.00" shape="98.35,354.75 98.16,353.39 97.57,352.42 96.61,351.84 95.25,351.65"/>
    </edge>
    <edge id=":2_2_0_1" function="internal">
        <lane id=":2_2_0_1_0" index="0" speed="13.90" length="9.50" shape="98.35,354.75 98.35,345.25"/>
    </edge>
    <edge id=":2_2_0_2" function="internal">
        <lane id=":2_2_0_2_0" index="0" speed="13.90" length="5.28" shape="98.35,354.75 98.75,351.95 99.95,349.95 100.05,349.89"/>
    </edge>
    <edge id=":2_2_0_3" function="internal">
        <lane id=":2_2_0_3_0" index="0" speed="13.90" length="2.41" shape="98.35,354.75 99.18,353.51 100.00,353.10"/>
    </edge>
    <edge id=":2_2_0_16" function="internal">
        <lane id=":2_2_0_16_0" index="0" speed="13.90" length="5.04" shape="100.05,349.89 101.95,348.75 104.75,348.35"/>
    </edge>
    <edge id=":2_2_0_17" function="internal">
        <lane id=":2_2_0_17_0" index="0" speed="13.90" length="2.41" shape="100.00,353.10 100.83,353.51 101.65,354.75"/>
    </edge>
    <edge id=":2_2_0_4" function="internal">
        <lane id=":2_2_0_4_0" index="0" speed="13.90" length="5.00" shape="104.75,351.65 103.39,351.84 102.43,352.42 101.84,353.39 101.65,354.75"/>
    </edge>
    <edge id=":2_2_0_5" function="internal">
        <lane id=":2_2_0_5_0" index="0" speed="13.90" length="9.50" shape="104.75,351.65 95.25,351.65"/>
    </edge>
    <edge id=":2_2_0_6" function="internal">
        <lane id=":2_2_0_6_0" index="0" speed="13.90" length="5.28" shape="104.75,351.65 101.95,351.25 99.95,350.05 99.89,349.95"/>
    </edge>
    <edge id=":2_2_0_7" function="internal">
        <lane id=":2_2_0_7_0" index="0" speed="13.90" length="2.41" shape="104.75,351.65 103.51,350.83 103.10,350.00"/>
    </edge>
    <edge id=":2_2_0_18" function="internal">
        <lane id=":2_2_0_18_0" index="0" speed="13.90" length="5.04" shape="99.89,349.95 98.75,348.05 98.35,345.25"/>
    </edge>
    <edge id=":2_2_0_19" function="internal">
        <lane id=":2_2_0_19_0" index="0" speed="13.90" length="2.41" shape="103.10,350.00 103.51,349.18 104.75,348.35"/>
    </edge>
    <edge id=":2_2_0_8" function="internal">
        <lane id=":2_2_0_8_0" index="0" speed="13.90" length="5.00" shape="101.65,345.25 101.84,346.61 102.43,347.58 103.39,348.16 104.75,348.35"/>
    </edge>
    <edge id=":2_2_0_9" function="internal">
        <lane id=":2_2_0_9_0" index="0" speed="13.90" length="9.50" shape="101.65,345.25 101.65,354.75"/>
    </edge>
    <edge id=":2_2_0_10" function="internal">
        <lane id=":2_2_0_10_0" index="0" speed="13.90" length="5.28" shape="101.65,345.25 101.25,348.05 100.05,350.05 99.95,350.11"/>
    </edge>
    <edge id=":2_2_0_11" function="internal">
        <lane id=":2_2_0_11_0" index="0" speed="13.90" length="2.41" shape="101.65,345.25 100.82,346.49 100.00,346.90"/>
    </edge>
    <edge id=":2_2_0_20" function="internal">
        <lane id=":2_2_0_20_0" index="0" speed="13.90" length="5.04" shape="99.95,350.11 98.05,351.25 95.25,351.65"/>
    </edge>
    <edge id=":2_2_0_21" function="internal">
        <lane id=":2_2_0_21_0" index="0" speed="13.90" length="2.41" shape="100.00,346.90 99.17,346.49 98.35,345.25"/>
    </edge>
    <edge id=":2_2_0_12" function="internal">
        <lane id=":2_2_0_12_0" index="0" speed="13.90" length="5.00" shape="95.25,348.35 96.61,348.16 97.57,347.58 98.16,346.61 98.35,345.25"/>
    </edge>
    <edge id=":2_2_0_13" function="internal">
        <lane id=":2_2_0_13_0" index="0" speed="13.90" length="9.50" shape="95.25,348.35 104.75,348.35"/>
    </edge>
    <edge id=":2_2_0_14" function="internal">
        <lane id=":2_2_0_14_0" index="0" speed="13.90" length="5.28" shape="95.25,348.35 98.05,348.75 100.05,349.95 100.11,350.05"/>
    </edge>
    <edge id=":2_2_0_15" function="internal">
        <lane id=":2_2_0_15_0" index="0" speed="13.90" length="2.41" shape="95.25,348.35 96.49,349.17 96.90,350.00"/>
    </edge>
    <edge id=":2_2_0_22" function="internal">
        <lane id=":2_2_0_22_0" index="0" speed="13.90" length="5.04" shape="100.11,350.05 101.25,351.95 101.65,354.75"/>
    </edge>
    <edge id=":2_2_0_23" function="internal">
        <lane id=":2_2_0_23_0" index="0" speed="13.90" length="2.41" shape="96.90,350.00 96.49,350.82 95.25,351.65"/>
    </edge>
    <edge id=":2_2_5_0" function="internal">
        <lane id=":2_2_5_0_0" index="0" speed="13.90" length="0.10" shape="150.00,351.65 150.00,351.65"/>
    </edge>
    <edge id=":2_2_5_1" function="internal">
        <lane id=":2_2_5_1_0" index="0" speed="13.90" length="2.41" shape="150.00,351.65 148.76,350.83 148.35,350.00"/>
    </edge>
    <edge id=":2_2_5_4" function="internal">
        <lane id=":2_2_5_4_0" index="0" speed="13.90" length="2.41" shape="148.35,350.00 148.76,349.18 150.00,348.35"/>
    </edge>
    <edge id=":2_2_5_2" function="internal">
        <lane id=":2_2_5_2_0" index="0" speed="13.90" length="0.10" shape="150.00,348.35 150.00,348.35"/>
    </edge>
    <edge id=":2_2_5_3" function="internal">
        <lane id=":2_2_5_3_0" index="0" speed="13.90" length="2.41" shape="150.00,348.35 151.24,349.17 151.65,350.00"/>
    </edge>
    <edge id=":2_2_5_5" function="internal">
        <lane id=":2_2_5_5_0" index="0" speed="13.90" length="2.41" shape="151.65,350.00 151.24,350.82 150.00,351.65"/>
    </edge>
    <edge id=":2_2_7_0" function="internal">
        <lane id=":2_2_7_0_0" index="0" speed="13.90" length="0.10" shape="98.35,300.00 98.35,300.00"/>
    </edge>
    <edge id=":2_2_7_1" function="internal">
        <lane id=":2_2_7_1_0" index="0" speed="13.90" length="2.41" shape="98.35,300.00 99.18,298.76 100.00,298.35"/>
    </edge>
    <edge id=":2_2_7_4" function="internal">
        <lane id=":2_2_7_4_0" index="0" speed="13.90" length="2.41" shape="100.00,298.35 100.83,298.76 101.65,300.00"/>
    </edge>
    <edge id=":2_2_7_2" function="internal">
        <lane id=":2_2_7_2_0" index="0" speed="13.90" length="0.10" shape="101.65,300.00 101.65,300.00"/>
    </edge>
    <edge id=":2_2_7_3" function="internal">
        <lane id=":2_2_7_3_0" index="0" speed="13.90" length="2.41" shape="101.65,300.00 100.82,301.24 100.00,301.65"/>
    </edge>
    <edge id=":2_2_7_5" function="internal">
        <lane id=":2_2_7_5_0" index="0" speed="13.90" length="2.41" shape="100.00,301.65 99.17,301.24 98.35,300.00"/>
    </edge>
    <edge id=":2_3_0_0" function="internal">
        <lane id=":2_3_0_0_0" index="0" speed="13.90" length="14.10" shape="98.35,259.35 98.35,245.25"/>
    </edge>
    <edge id=":2_3_0_1" function="internal">
        <lane id=":2_3_0_1_0" index="0" speed="13.90" length="6.83" shape="98.35,259.35 99.04,254.54 100.05,252.85"/>
    </edge>
    <edge id=":2_3_0_2" function="internal">
        <lane id=":2_3_0_2_0" index="0" speed="13.90" length="7.15" shape="98.35,259.35 98.94,254.10 100.05,252.60"/>
    </edge>
    <edge id=":2_3_0_3" function="internal">
        <lane id=":2_3_0_3_0" index="0" speed="13.90" length="2.41" shape="98.35,259.35 99.18,258.11 100.00,257.70"/>
    </edge>
    <edge id=":2_3_0_16" function="internal">
        <lane id=":2_3_0_16_0" index="0" speed="13.90" length="10.91" shape="100.05,252.85 101.10,251.10 104.54,249.04 109.35,248.35"/>
    </edge>
    <edge id=":2_3_0_17" function="internal">
        <lane id=":2_3_0_17_0" index="0" speed="13.90" length="9.36" shape="100.05,252.60 100.71,251.71 103.65,252.15 107.78,255.44"/>
    </edge>
    <edge id=":2_3_0_18" function="internal">
        <lane id=":2_3_0_18_0" index="0" speed="13.90" length="2.41" shape="100.00,257.70 100.83,258.11 101.65,259.35"/>
    </edge>
    <edge id=":2_3_0_4" function="internal">
        <lane id=":2_3_0_4_0" index="0" speed="13.90" length="6.64" shape="105.44,257.78 103.78,256.45 102.60,256.27 101.89,257.24 101.65,259.35"/>
    </edge>
    <edge id=":2_3_0_5" function="internal">
        <lane id=":2_3_0_5_0" index="0" speed="13.90" length="14.72" shape="105.44,257.78 102.34,254.33 100.12,251.10 98.79,248.07 98.35,245.25"/>
    </edge>
    <edge id=":2_3_0_6" function="internal">
        <lane id=":2_3_0_6_0" index="0" speed="13.90" length="16.51" shape="105.44,257.78 102.15,253.65 101.71,250.71 104.10,248.94 109.35,248.35"/>
    </edge>
    <edge id=":2_3_0_7" function="internal">
        <lane id=":2_3_0_7_0" index="0" speed="13.90" length="4.82" shape="105.44,257.78 105.15,256.32 105.44,255.44 106.32,255.15 107.78,255.44"/>
    </edge>
    <edge id=":2_3_0_8" function="internal">
        <lane id=":2_3_0_8_0" index="0" speed="13.90" length="6.64" shape="109.35,251.65 107.24,251.89 106.27,252.60 106.45,253.78 107.78,255.44"/>
    </edge>
    <edge id=":2_3_0_9" function="internal">
        <lane id=":2_3_0_9_0" index="0" speed="13.90" length="12.41" shape="109.35,251.65 105.98,252.13 103.57,253.57 102.13,255.98 101.65,259.35"/>
    </edge>
    <edge id=":2_3_0_10" function="internal">
        <lane id=":2_3_0_10_0" index="0" speed="13.90" length="14.22" shape="109.35,251.65 104.54,251.25 101.10,250.05 99.04,248.05 98.35,245.25"/>
    </edge>
    <edge id=":2_3_0_11" function="internal">
        <lane id=":2_3_0_11_0" index="0" speed="13.90" length="4.82" shape="109.35,251.65 108.11,250.82 107.70,250.00 108.11,249.18 109.35,248.35"/>
    </edge>
    <edge id=":2_3_0_12" function="internal">
        <lane id=":2_3_0_12_0" index="0" speed="13.90" length="9.02" shape="101.65,245.25 102.13,246.61 103.57,247.58 105.98,248.16 109.35,248.35"/>
    </edge>
    <edge id=":2_3_0_13" function="internal">
        <lane id=":2_3_0_13_0" index="0" speed="13.90" length="12.14" shape="101.65,245.25 102.03,247.41 103.18,249.83 105.10,252.51 107.78,255.44"/>
    </edge>
    <edge id=":2_3_0_14" function="internal">
        <lane id=":2_3_0_14_0" index="0" speed="13.90" length="14.10" shape="101.65,245.25 101.65,259.35"/>
    </edge>
    <edge id=":2_3_0_15" function="internal">
        <lane id=":2_3_0_15_0" index="0" speed="13.90" length="2.41" shape="101.65,245.25 100.82,246.49 100.00,246.90"/>
    </edge>
    <edge id=":2_3_0_19" function="internal">
        <lane id=":2_3_0_19_0" index="0" speed="13.90" length="2.41" shape="100.00,246.90 99.17,246.49 98.35,245.25"/>
    </edge>
    <edge id=":2_3_5_0" function="internal">
        <lane id=":2_3_5_0_0" index="0" speed="13.90" length="0.10" shape="150.00,251.65 150.00,251.65"/>
    </edge>
    <edge id=":2_3_5_1" function="internal">
        <lane id=":2_3_5_1_0" index="0" speed="13.90" length="2.41" shape="150.00,251.65 148.76,250.82 148.35,250.00"/>
    </edge>
    <edge id=":2_3_5_4" function="internal">
        <lane id=":2_3_5_4_0" index="0" speed="13.90" length="2.41" shape="148.35,250.00 148.76,249.18 150.00,248.35"/>
    </edge>
    <edge id=":2_3_5_2" function="internal">
        <lane id=":2_3_5_2_0" index="0" speed="13.90" length="0.10" shape="150.00,248.35 150.00,248.35"/>
    </edge>
    <edge id=":2_3_5_3" function="internal">
        <lane id=":2_3_5_3_0" index="0" speed="13.90" length="2.41" shape="150.00,248.35 151.24,249.18 151.65,250.00"/>
    </edge>
    <edge id=":2_3_5_5" function="internal">
        <lane id=":2_3_5_5_0" index="0" speed="13.90" length="2.41" shape="151.65,250.00 151.24,250.82 150.00,251.65"/>
    </edge>
    <edge id=":2_3_7_0" function="internal">
        <lane id=":2_3_7_0_0" index="0" speed="13.90" length="0.10" shape="98.35,200.00 98.35,200.00"/>
    </edge>
    <edge id=":2_3_7_1" function="internal">
        <lane id=":2_3_7_1_0" index="0" speed="13.90" length="2.41" shape="98.35,200.00 99.18,198.76 100.00,198.35"/>
    </edge>
    <edge id=":2_3_7_4" function="internal">
        <lane id=":2_3_7_4_0" index="0" speed="13.90" length="2.41" shape="100.00,198.35 100.83,198.76 101.65,200.00"/>
    </edge>
    <edge id=":2_3_7_2" function="internal">
        <lane id=":2_3_7_2_0" index="0" speed="13.90" length="0.10" shape="101.65,200.00 101.65,200.00"/>
    </edge>
    <edge id=":2_3_7_3" function="internal">
        <lane id=":2_3_7_3_0" index="0" speed="13.90" length="2.41" shape="101.65,200.00 100.82,201.24 100.00,201.65"/>
    </edge>
    <edge id=":2_3_7_5" function="internal">
        <lane id=":2_3_7_5_0" index="0" speed="13.90" length="2.41" shape="100.00,201.65 99.17,201.24 98.35,200.00"/>
    </edge>
    <edge id=":2_4_0_0" function="internal">
        <lane id=":2_4_0_0_0" index="0" speed="13.90" length="5.00" shape="98.35,154.75 98.16,153.39 97.57,152.43 96.61,151.84 95.25,151.65"/>
    </edge>
    <edge id=":2_4_0_1" function="internal">
        <lane id=":2_4_0_1_0" index="0" speed="13.90" length="9.50" shape="98.35,154.75 98.35,145.25"/>
    </edge>
    <edge id=":2_4_0_2" function="internal">
        <lane id=":2_4_0_2_0" index="0" speed="13.90" length="5.28" shape="98.35,154.75 98.75,151.95 99.95,149.95 100.05,149.89"/>
    </edge>
    <edge id=":2_4_0_3" function="internal">
        <lane id=":2_4_0_3_0" index="0" speed="13.90" length="2.41" shape="98.35,154.75 99.18,153.51 100.00,153.10"/>
    </edge>
    <edge id=":2_4_0_16" function="internal">
        <lane id=":2_4_0_16_0" index="0" speed="13.90" length="5.04" shape="100.05,149.89 101.95,148.75 104.75,148.35"/>
    </edge>
    <edge id=":2_4_0_17" function="internal">
        <lane id=":2_4_0_17_0" index="0" speed="13.90" length="2.41" shape="100.00,153.10 100.83,153.51 101.65,154.75"/>
    </edge>
    <edge id=":2_4_0_4" function="internal">
        <lane id=":2_4_0_4_0" index="0" speed="13.90" length="5.00" shape="104.75,151.65 103.39,151.84 102.43,152.43 101.84,153.39 101.65,154.75"/>
    </edge>
    <edge id=":2_4_0_5" function="internal">
        <lane id=":2_4_0_5_0" index="0" speed="13.90" length="9.50" shape="104.75,151.65 95.25,151.65"/>
    </edge>
    <edge id=":2_4_0_6" function="internal">
        <lane id=":2_4_0_6_0" index="0" speed="13.90" length="5.28" shape="104.75,151.65 101.95,151.25 99.95,150.05 99.89,149.95"/>
    </edge>
    <edge id=":2_4_0_7" function="internal">
        <lane id=":2_4_0_7_0" index="0" speed="13.90" length="2.41" shape="104.75,151.65 103.51,150.83 103.10,150.00"/>
    </edge>
    <edge id=":2_4_0_18" function="internal">
        <lane id=":2_4_0_18_0" index="0" speed="13.90" length="5.04" shape="99.89,149.95 98.75,148.05 98.35,145.25"/>
    </edge>
    <edge id=":2_4_0_19" function="internal">
        <lane id=":2_4_0_19_0" index="0" speed="13.90" length="2.41" shape="103.10,150.00 103.51,149.18 104.75,148.35"/>
    </edge>
    <edge id=":2_4_0_8" function="internal">
        <lane id=":2_4_0_8_0" index="0" speed="13.90" length="5.00" shape="101.65,145.25 101.84,146.61 102.43,147.57 103.39,148.16 104.75,148.35"/>
    </edge>
    <edge id=":2_4_0_9" function="internal">
        <lane id=":2_4_0_9_0" index="0" speed="13.90" length="9.50" shape="101.65,145.25 101.65,154.75"/>
    </edge>
    <edge id=":2_4_0_10" function="internal">
        <lane id=":2_4_0_10_0" index="0" speed="13.90" length="5.28" shape="101.65,145.25 101.25,148.05 100.05,150.05 99.95,150.11"/>
    </edge>
    <edge id=":2_4_0_11" function="internal">
        <lane id=":2_4_0_11_0" index="0" speed="13.90" length="2.41" shape="101.65,145.25 100.82,146.49 100.00,146.90"/>
    </edge>
    <edge id=":2_4_0_20" function="internal">
        <lane id=":2_4_0_20_0" index="0" speed="13.90" length="5.04" shape="99.95,150.11 98.05,151.25 95.25,151.65"/>
    </edge>
    <edge id=":2_4_0_21" function="internal">
        <lane id=":2_4_0_21_0" index="0" speed="13.90" length="2.41" shape="100.00,146.90 99.17,146.49 98.35,145.25"/>
    </edge>
    <edge id=":2_4_0_12" function="internal">
        <lane id=":2_4_0_12_0" index="0" speed="13.90" length="5.00" shape="95.25,148.35 96.61,148.16 97.57,147.57 98.16,146.61 98.35,145.25"/>
    </edge>
    <edge id=":2_4_0_13" function="internal">
        <lane id=":2_4_0_13_0" index="0" speed="13.90" length="9.50" shape="95.25,148.35 104.75,148.35"/>
    </edge>
    <edge id=":2_4_0_14" function="internal">
        <lane id=":2_4_0_14_0" index="0" speed="13.90" length="5.28" shape="95.25,148.35 98.05,148.75 100.05,149.95 100.11,150.05"/>
    </edge>
    <edge id=":2_4_0_15" function="internal">
        <lane id=":2_4_0_15_0" index="0" speed="13.90" length="2.41" shape="95.25,148.35 96.49,149.17 96.90,150.00"/>
    </edge>
    <edge id=":2_4_0_22" function="internal">
        <lane id=":2_4_0_22_0" index="0" speed="13.90" length="5.04" shape="100.11,150.05 101.25,151.95 101.65,154.75"/>
    </edge>
    <edge id=":2_4_0_23" function="internal">
        <lane id=":2_4_0_23_0" index="0" speed="13.90" length="2.41" shape="96.90,150.00 96.49,150.82 95.25,151.65"/>
    </edge>
    <edge id=":2_4_5_0" function="internal">
        <lane id=":2_4_5_0_0" index="0" speed="13.90" length="0.10" shape="150.00,151.65 150.00,151.65"/>
    </edge>
    <edge id=":2_4_5_1" function="internal">
        <lane id=":2_4_5_1_0" index="0" speed="13.90" length="2.41" shape="150.00,151.65 148.76,150.83 148.35,150.00"/>
    </edge>
    <edge id=":2_4_5_4" function="internal">
        <lane id=":2_4_5_4_0" index="0" speed="13.90" length="2.41" shape="148.35,150.00 148.76,149.18 150.00,148.35"/>
    </edge>
    <edge id=":2_4_5_2" function="internal">
        <lane id=":2_4_5_2_0" index="0" speed="13.90" length="0.10" shape="150.00,148.35 150.00,148.35"/>
    </edge>
    <edge id=":2_4_5_3" function="internal">
        <lane id=":2_4_5_3_0" index="0" speed="13.90" length="2.41" shape="150.00,148.35 151.24,149.17 151.65,150.00"/>
    </edge>
    <edge id=":2_4_5_5" function="internal">
        <lane id=":2_4_5_5_0" index="0" speed="13.90" length="2.41" shape="151.65,150.00 151.24,150.82 150.00,151.65"/>
    </edge>
    <edge id=":2_4_7_0" function="internal">
        <lane id=":2_4_7_0_0" index="0" speed="13.90" length="0.10" shape="98.35,100.00 98.35,100.00"/>
    </edge>
    <edge id=":2_4_7_1" function="internal">
        <lane id=":2_4_7_1_0" index="0" speed="13.90" length="2.41" shape="98.35,100.00 99.18,98.76 100.00,98.35"/>
    </edge>
    <edge id=":2_4_7_4" function="internal">
        <lane id=":2_4_7_4_0" index="0" speed="13.90" length="2.41" shape="100.00,98.35 100.83,98.76 101.65,100.00"/>
    </edge>