<?xml version="1.0" encoding="UTF-8"?>
<nodes xmlns:xsi="http://www.w3.org/2001/XMLSchema-instance" xsi:noNamespaceSchemaLocation="http://sumo.dlr.de/xsd/nodes_file.xsd">
	<node id="2_1_0" x="150.0" y="-50.0" type="priority"/>
	<node id="2_1_3" x="150.0" y="0.0" />
	<node id="2_1_5" x="200.0" y="-50.0" />
	<node id="2_1_7" x="150.0" y="-100.0" />
	<node id="3_1_0" x="250.0" y="-50.0" type="priority"/>
	<node id="3_1_5" x="300.0" y="-50.0" />
	<node id="4_1_0" x="350.0" y="-50.0" type="priority"/>
	<node id="4_1_5" x="400.0" y="-50.0" />
	<node id="4_1_7" x="350.0" y="-100.0" />
	<node id="5_1_0" x="450.0" y="-50.0" type="priority"/>
	<node id="1_2_0" x="50.0" y="-150.0" type="priority"/>
	<node id="1_2_5" x="100.0" y="-150.0" />
	<node id="2_2_0" x="150.0" y="-150.0" type="traffic_light"/>
	<node id="2_2_5" x="200.0" y="-150.0" />
	<node id="2_2_7" x="150.0" y="-200.0" />
	<node id="3_2_0" x="250.0" y="-150.0" type="traffic_light"/>
	<node id="3_2_5" x="300.0" y="-150.0" />
	<node id="3_2_6" x="300.0" y="-200.0" />
	<node id="3_2_7" x="250.0" y="-200.0" />
	<node id="3_2_8" x="200.0" y="-200.0" />
	<node id="4_2_0" x="350.0" y="-150.0" type="traffic_light"/>
	<node id="4_2_5" x="400.0" y="-150.0" />
	<node id="4_2_7" x="350.0" y="-200.0" />
	<node id="5_2_0" x="450.0" y="-150.0" type="priority"/>
	<node id="5_2_5" x="500.0" y="-150.0" />
	<node id="5_2_7" x="450.0" y="-200.0" />
	<node id="2_3_0" x="150.0" y="-250.0" type="priority"/>
	<node id="2_3_5" x="200.0" y="-250.0" />
	<node id="2_3_7" x="150.0" y="-300.0" />
	<node id="3_3_0" x="250.0" y="-250.0" type="traffic_light"/>
	<node id="3_3_5" x="300.0" y="-250.0" />
	<node id="3_3_7" x="250.0" y="-300.0" />
	<node id="4_3_0" x="350.0" y="-250.0" type="traffic_light"/>
	<node id="4_3_5" x="400.0" y="-250.0" />
	<node id="4_3_7" x="350.0" y="-300.0" />
	<node id="5_3_0" x="450.0" y="-250.0" type="traffic_light"/>
	<node id="5_3_5" x="500.0" y="-250.0" />
	<node id="5_3_8" x="400.0" y="-300.0" />
	<node id="1_4_0" x="50.0" y="-350.0" type="priority"/>
	<node id="1_4_7" x="50.0" y="-400.0" />
	<node id="1_4_5" x="100.0" y="-350.0" />
	<node id="2_4_0" x="150.0" y="-350.0" type="traffic_light"/>
	<node id="2_4_5" x="200.0" y="-350.0" />
	<node id="2_4_7" x="150.0" y="-400.0" />
	<node id="3_4_0" x="250.0" y="-350.0" type="traffic_light"/>
	<node id="3_4_5" x="300.0" y="-350.0" />
	<node id="3_4_6" x="300.0" y="-400.0" />
	<node id="3_4_8" x="200.0" y="-400.0" />
	<node id="4_4_0" x="350.0" y="-350.0" type="priority"/>
	<node id="4_4_7" x="350.0" y="-400.0" />
	<node id="1_5_0" x="50.0" y="-450.0" type="priority"/>
	<node id="1_5_5" x="100.0" y="-450.0" />
	<node id="2_5_0" x="150.0" y="-450.0" type="priority"/>
	<node id="2_5_5" x="200.0" y="-450.0" />
	<node id="2_5_8" x="100.0" y="-500.0" />
	<node id="4_5_0" x="350.0" y="-450.0" type="priority"/>
	<node id="4_5_5" x="400.0" y="-450.0" />
	<node id="5_5_0" x="450.0" y="-450.0" type="priority"/>
	<node id="5_5_5" x="500.0" y="-450.0" />
<!--Generated by District-->
</nodes>
