<?xml version="1.0" encoding="UTF-8"?>
<edges xmlns:xsi="http://www.w3.org/2001/XMLSchema-instance" xsi:noNamespaceSchemaLocation="http://sumo.dlr.de/xsd/edges_file.xsd">
	<edge id="2_1_3-2_1_0" from="2_1_3" to="2_1_0" type="district.default" />
	<edge id="2_1_0-2_1_3" from="2_1_0" to="2_1_3" type="district.default" />
	<edge id="2_1_5-2_1_0" from="2_1_5" to="2_1_0" type="district.default" />
	<edge id="2_1_0-2_1_5" from="2_1_0" to="2_1_5" type="district.default" />
	<edge id="2_1_7-2_1_0" from="2_1_7" to="2_1_0" type="district.default" />
	<edge id="2_1_0-2_1_7" from="2_1_0" to="2_1_7" type="district.default" />
	<edge id="2_1_5-3_1_0" from="2_1_5" to="3_1_0" type="district.default" />
	<edge id="3_1_0-2_1_5" from="3_1_0" to="2_1_5" type="district.default" />
	<edge id="3_1_5-3_1_0" from="3_1_5" to="3_1_0" type="district.default" />
	<edge id="3_1_0-3_1_5" from="3_1_0" to="3_1_5" type="district.default" />
	<edge id="3_1_5-4_1_0" from="3_1_5" to="4_1_0" type="district.default" />
	<edge id="4_1_0-3_1_5" from="4_1_0" to="3_1_5" type="district.default" />
	<edge id="4_1_5-4_1_0" from="4_1_5" to="4_1_0" type="district.default" />
	<edge id="4_1_0-4_1_5" from="4_1_0" to="4_1_5" type="district.default" />
	<edge id="4_1_7-4_1_0" from="4_1_7" to="4_1_0" type="district.default" />
	<edge id="4_1_0-4_1_7" from="4_1_0" to="4_1_7" type="district.default" />
	<edge id="4_1_5-5_1_0" from="4_1_5" to="5_1_0" type="district.default" />
	<edge id="5_1_0-4_1_5" from="5_1_0" to="4_1_5" type="district.default" />
	<edge id="1_2_5-1_2_0" from="1_2_5" to="1_2_0" type="district.default" />
	<edge id="1_2_0-1_2_5" from="1_2_0" to="1_2_5" type="district.default" />
	<edge id="1_2_5-2_2_0" from="1_2_5" to="2_2_0" type="district.default" />
	<edge id="2_2_0-1_2_5" from="2_2_0" to="1_2_5" type="district.default" />
	<edge id="2_1_7-2_2_0" from="2_1_7" to="2_2_0" type="district.default" />
	<edge id="2_2_0-2_1_7" from="2_2_0" to="2_1_7" type="district.default" />
	<edge id="2_2_5-2_2_0" from="2_2_5" to="2_2_0" type="district.default" />
	<edge id="2_2_0-2_2_5" from="2_2_0" to="2_2_5" type="district.default" />
	<edge id="2_2_7-2_2_0" from="2_2_7" to="2_2_0" type="district.default" />
	<edge id="2_2_0-2_2_7" from="2_2_0" to="2_2_7" type="district.default" />
	<edge id="2_2_5-3_2_0" from="2_2_5" to="3_2_0" type="district.default" />
	<edge id="3_2_0-2_2_5" from="3_2_0" to="2_2_5" type="district.default" />
	<edge id="3_2_5-3_2_0" from="3_2_5" to="3_2_0" type="district.default" />
	<edge id="3_2_0-3_2_5" from="3_2_0" to="3_2_5" type="district.default" />
	<edge id="3_2_6-3_2_0" from="3_2_6" to="3_2_0" type="district.default" />
	<edge id="3_2_0-3_2_6" from="3_2_0" to="3_2_6" type="district.default" />
	<edge id="3_2_7-3_2_0" from="3_2_7" to="3_2_0" type="district.default" />
	<edge id="3_2_0-3_2_7" from="3_2_0" to="3_2_7" type="district.default" />
	<edge id="3_2_8-3_2_0" from="3_2_8" to="3_2_0" type="district.default" />
	<edge id="3_2_0-3_2_8" from="3_2_0" to="3_2_8" type="district.default" />
	<edge id="3_2_5-4_2_0" from="3_2_5" to="4_2_0" type="district.default" />
	<edge id="4_2_0-3_2_5" from="4_2_0" to="3_2_5" type="district.default" />
	<edge id="4_1_7-4_2_0" from="4_1_7" to="4_2_0" type="district.default" />
	<edge id="4_2_0-4_1_7" from="4_2_0" to="4_1_7" type="district.default" />
	<edge id="4_2_5-4_2_0" from="4_2_5" to="4_2_0" type="district.default" />
	<edge id="4_2_0-4_2_5" from="4_2_0" to="4_2_5" type="district.default" />
	<edge id="4_2_7-4_2_0" from="4_2_7" to="4_2_0" type="district.default" />
	<edge id="4_2_0-4_2_7" from="4_2_0" to="4_2_7" type="district.default" />
	<edge id="4_2_5-5_2_0" from="4_2_5" to="5_2_0" type="district.default" />
	<edge id="5_2_0-4_2_5" from="5_2_0" to="4_2_5" type="district.default" />
	<edge id="5_2_5-5_2_0" from="5_2_5" to="5_2_0" type="district.default" />
	<edge id="5_2_0-5_2_5" from="5_2_0" to="5_2_5" type="district.default" />
	<edge id="5_2_7-5_2_0" from="5_2_7" to="5_2_0" type="district.default" />
	<edge id="5_2_0-5_2_7" from="5_2_0" to="5_2_7" type="district.default" />
	<edge id="2_2_7-2_3_0" from="2_2_7" to="2_3_0" type="district.default" />
	<edge id="2_3_0-2_2_7" from="2_3_0" to="2_2_7" type="district.default" />
	<edge id="3_2_8-2_3_0" from="3_2_8" to="2_3_0" type="district.default" />
	<edge id="2_3_0-3_2_8" from="2_3_0" to="3_2_8" type="district.default" />
	<edge id="2_3_5-2_3_0" from="2_3_5" to="2_3_0" type="district.default" />
	<edge id="2_3_0-2_3_5" from="2_3_0" to="2_3_5" type="district.default" />
	<edge id="2_3_7-2_3_0" from="2_3_7" to="2_3_0" type="district.default" />
	<edge id="2_3_0-2_3_7" from="2_3_0" to="2_3_7" type="district.default" />
	<edge id="2_3_5-3_3_0" from="2_3_5" to="3_3_0" type="district.default" />
	<edge id="3_3_0-2_3_5" from="3_3_0" to="2_3_5" type="district.default" />
	<edge id="3_2_7-3_3_0" from="3_2_7" to="3_3_0" type="district.default" />
	<edge id="3_3_0-3_2_7" from="3_3_0" to="3_2_7" type="district.default" />
	<edge id="3_3_5-3_3_0" from="3_3_5" to="3_3_0" type="district.default" />
	<edge id="3_3_0-3_3_5" from="3_3_0" to="3_3_5" type="district.default" />
	<edge id="3_3_7-3_3_0" from="3_3_7" to="3_3_0" type="district.default" />
	<edge id="3_3_0-3_3_7" from="3_3_0" to="3_3_7" type="district.default" />
	<edge id="3_3_5-4_3_0" from="3_3_5" to="4_3_0" type="district.default" />
	<edge id="4_3_0-3_3_5" from="4_3_0" to="3_3_5" type="district.default" />
	<edge id="3_2_6-4_3_0" from="3_2_6" to="4_3_0" type="district.default" />
	<edge id="4_3_0-3_2_6" from="4_3_0" to="3_2_6" type="district.default" />
	<edge id="4_2_7-4_3_0" from="4_2_7" to="4_3_0" type="district.default" />
	<edge id="4_3_0-4_2_7" from="4_3_0" to="4_2_7" type="district.default" />
	<edge id="4_3_5-4_3_0" from="4_3_5" to="4_3_0" type="district.default" />
	<edge id="4_3_0-4_3_5" from="4_3_0" to="4_3_5" type="district.default" />
	<edge id="4_3_7-4_3_0" from="4_3_7" to="4_3_0" type="district.default" />
	<edge id="4_3_0-4_3_7" from="4_3_0" to="4_3_7" type="district.default" />
	<edge id="4_3_5-5_3_0" from="4_3_5" to="5_3_0" type="district.default" />
	<edge id="5_3_0-4_3_5" from="5_3_0" to="4_3_5" type="district.default" />
	<edge id="5_2_7-5_3_0" from="5_2_7" to="5_3_0" type="district.default" />
	<edge id="5_3_0-5_2_7" from="5_3_0" to="5_2_7" type="district.default" />
	<edge id="5_3_5-5_3_0" from="5_3_5" to="5_3_0" type="district.default" />
	<edge id="5_3_0-5_3_5" from="5_3_0" to="5_3_5" type="district.default" />
	<edge id="5_3_8-5_3_0" from="5_3_8" to="5_3_0" type="district.default" />
	<edge id="5_3_0-5_3_8" from="5_3_0" to="5_3_8" type="district.default" />
	<edge id="1_4_7-1_4_0" from="1_4_7" to="1_4_0" type="district.default" />
	<edge id="1_4_0-1_4_7" from="1_4_0" to="1_4_7" type="district.default" />
	<edge id="1_4_5-1_4_0" from="1_4_5" to="1_4_0" type="district.default" />
	<edge id="1_4_0-1_4_5" from="1_4_0" to="1_4_5" type="district.default" />
	<edge id="1_4_5-2_4_0" from="1_4_5" to="2_4_0" type="district.default" />
	<edge id="2_4_0-1_4_5" from="2_4_0" to="1_4_5" type="district.default" />
	<edge id="2_3_7-2_4_0" from="2_3_7" to="2_4_0" type="district.default" />
	<edge id="2_4_0-2_3_7" from="2_4_0" to="2_3_7" type="district.default" />
	<edge id="2_4_5-2_4_0" from="2_4_5" to="2_4_0" type="district.default" />
	<edge id="2_4_0-2_4_5" from="2_4_0" to="2_4_5" type="district.default" />
	<edge id="2_4_7-2_4_0" from="2_4_7" to="2_4_0" type="district.default" />
	<edge id="2_4_0-2_4_7" from="2_4_0" to="2_4_7" type="district.default" />
	<edge id="2_4_5-3_4_0" from="2_4_5" to="3_4_0" type="district.default" />
	<edge id="3_4_0-2_4_5" from="3_4_0" to="2_4_5" type="district.default" />
	<edge id="3_3_7-3_4_0" from="3_3_7" to="3_4_0" type="district.default" />
	<edge id="3_4_0-3_3_7" from="3_4_0" to="3_3_7" type="district.default" />
	<edge id="3_4_5-3_4_0" from="3_4_5" to="3_4_0" type="district.default" />
	<edge id="3_4_0-3_4_5" from="3_4_0" to="3_4_5" type="district.default" />
	<edge id="3_4_6-3_4_0" from="3_4_6" to="3_4_0" type="district.default" />
	<edge id="3_4_0-3_4_6" from="3_4_0" to="3_4_6" type="district.default" />
	<edge id="3_4_8-3_4_0" from="3_4_8" to="3_4_0" type="district.default" />
	<edge id="3_4_0-3_4_8" from="3_4_0" to="3_4_8" type="district.default" />
	<edge id="3_4_5-4_4_0" from="3_4_5" to="4_4_0" type="district.default" />
	<edge id="4_4_0-3_4_5" from="4_4_0" to="3_4_5" type="district.default" />
	<edge id="4_3_7-4_4_0" from="4_3_7" to="4_4_0" type="district.default" />
	<edge id="4_4_0-4_3_7" from="4_4_0" to="4_3_7" type="district.default" />
	<edge id="5_3_8-4_4_0" from="5_3_8" to="4_4_0" type="district.default" />
	<edge id="4_4_0-5_3_8" from="4_4_0" to="5_3_8" type="district.default" />
	<edge id="4_4_7-4_4_0" from="4_4_7" to="4_4_0" type="district.default" />
	<edge id="4_4_0-4_4_7" from="4_4_0" to="4_4_7" type="district.default" />
	<edge id="1_4_7-1_5_0" from="1_4_7" to="1_5_0" type="district.default" />
	<edge id="1_5_0-1_4_7" from="1_5_0" to="1_4_7" type="district.default" />
	<edge id="1_5_5-1_5_0" from="1_5_5" to="1_5_0" type="district.default" />
	<edge id="1_5_0-1_5_5" from="1_5_0" to="1_5_5" type="district.default" />
	<edge id="1_5_5-2_5_0" from="1_5_5" to="2_5_0" type="district.default" />
	<edge id="2_5_0-1_5_5" from="2_5_0" to="1_5_5" type="district.default" />
	<edge id="2_4_7-2_5_0" from="2_4_7" to="2_5_0" type="district.default" />
	<edge id="2_5_0-2_4_7" from="2_5_0" to="2_4_7" type="district.default" />
	<edge id="3_4_8-2_5_0" from="3_4_8" to="2_5_0" type="district.default" />
	<edge id="2_5_0-3_4_8" from="2_5_0" to="3_4_8" type="district.default" />
	<edge id="2_5_5-2_5_0" from="2_5_5" to="2_5_0" type="district.default" />
	<edge id="2_5_0-2_5_5" from="2_5_0" to="2_5_5" type="district.default" />
	<edge id="2_5_8-2_5_0" from="2_5_8" to="2_5_0" type="district.default" />
	<edge id="2_5_0-2_5_8" from="2_5_0" to="2_5_8" type="district.default" />
	<edge id="3_4_6-4_5_0" from="3_4_6" to="4_5_0" type="district.default" />
	<edge id="4_5_0-3_4_6" from="4_5_0" to="3_4_6" type="district.default" />
	<edge id="4_4_7-4_5_0" from="4_4_7" to="4_5_0" type="district.default" />
	<edge id="4_5_0-4_4_7" from="4_5_0" to="4_4_7" type="district.default" />
	<edge id="4_5_5-4_5_0" from="4_5_5" to="4_5_0" type="district.default" />
	<edge id="4_5_0-4_5_5" from="4_5_0" to="4_5_5" type="district.default" />
	<edge id="4_5_5-5_5_0" from="4_5_5" to="5_5_0" type="district.default" />
	<edge id="5_5_0-4_5_5" from="5_5_0" to="4_5_5" type="district.default" />
	<edge id="5_5_5-5_5_0" from="5_5_5" to="5_5_0" type="district.default" />
	<edge id="5_5_0-5_5_5" from="5_5_0" to="5_5_5" type="district.default" />
<!--Generated by District-->
</edges>
