<?xml version="1.0" encoding="UTF-8"?>

<!-- generated on Tue Feb  5 11:04:32 2013 by SUMO netconvert Version 0.16.0
<?xml version="1.0" encoding="UTF-8"?>

<configuration xmlns:xsi="http://www.w3.org/2001/XMLSchema-instance" xsi:noNamespaceSchemaLocation="http://sumo.sf.net/xsd/netconvertConfiguration.xsd">

    <input>
        <node-files value="corridor.nod.xml"/>
        <edge-files value="corridor.edg.xml"/>
        <type-files value="corridor.typ.xml"/>
    </input>

    <output>
        <output-file value="corridorT.net.xml"/>
    </output>

    <processing>
        <no-turnarounds value="true"/>
    </processing>

    <report>
        <verbose value="true"/>
    </report>

</configuration>
-->

<net version="0.13" xmlns:xsi="http://www.w3.org/2001/XMLSchema-instance" xsi:noNamespaceSchemaLocation="http://sumo.sf.net/xsd/net_file.xsd">

    <location netOffset="0.00,150.00" convBoundary="0.00,0.00,625.00,300.00" origBoundary="0.00,-150.00,625.00,150.00" projParameter="!"/>

    <edge id=":0_0" function="internal">
        <lane id=":0_0_0" index="0" speed="13.89" length="5.00" shape="148.35,158.05 148.16,156.69 147.57,155.72 146.61,155.14 145.25,154.95"/>
    </edge>
    <edge id=":0_1" function="internal">
        <lane id=":0_1_0" index="0" speed="13.89" length="16.10" shape="148.35,158.05 148.35,154.13 148.35,150.00 148.35,145.87 148.35,141.95"/>
    </edge>
    <edge id=":0_2" function="internal">
        <lane id=":0_2_0" index="0" speed="13.89" length="3.11" shape="148.35,158.05 148.64,154.95"/>
    </edge>
    <edge id=":0_14" function="internal">
        <lane id=":0_14_0" index="0" speed="13.89" length="9.98" shape="148.64,154.95 148.75,153.81 149.95,150.77 151.95,148.96 154.75,148.35"/>
    </edge>
    <edge id=":0_3" function="internal">
        <lane id=":0_3_0" index="0" speed="13.89" length="5.00" shape="154.75,154.95 153.39,155.14 152.43,155.72 151.84,156.69 151.65,158.05"/>
    </edge>
    <edge id=":0_4" function="internal">
        <lane id=":0_4_0" index="0" speed="13.89" length="9.50" shape="154.75,154.95 145.25,154.95"/>
    </edge>
    <edge id=":0_5" function="internal">
        <lane id=":0_5_0" index="0" speed="13.89" length="9.50" shape="154.75,151.65 145.25,151.65"/>
    </edge>
    <edge id=":0_6" function="internal">
        <lane id=":0_6_0" index="0" speed="13.89" length="3.27" shape="154.75,151.65 151.95,151.04 151.65,150.77"/>
    </edge>
    <edge id=":0_15" function="internal">
        <lane id=":0_15_0" index="0" speed="13.89" length="9.82" shape="151.65,150.77 149.95,149.23 148.75,146.19 148.35,141.95"/>
    </edge>
    <edge id=":0_7" function="internal">
        <lane id=":0_7_0" index="0" speed="13.89" length="5.00" shape="151.65,141.95 151.84,143.31 152.43,144.28 153.39,144.86 154.75,145.05"/>
    </edge>
    <edge id=":0_8" function="internal">
        <lane id=":0_8_0" index="0" speed="13.89" length="16.10" shape="151.65,141.95 151.65,145.87 151.65,150.00 151.65,154.13 151.65,158.05"/>
    </edge>
    <edge id=":0_9" function="internal">
        <lane id=":0_9_0" index="0" speed="13.89" length="3.11" shape="151.65,141.95 151.36,145.05"/>
    </edge>
    <edge id=":0_16" function="internal">
        <lane id=":0_16_0" index="0" speed="13.89" length="9.98" shape="151.36,145.05 151.25,146.19 150.05,149.23 148.05,151.04 145.25,151.65"/>
    </edge>
    <edge id=":0_10" function="internal">
        <lane id=":0_10_0" index="0" speed="13.89" length="5.00" shape="145.25,145.05 146.61,144.86 147.57,144.28 148.16,143.31 148.35,141.95"/>
    </edge>
    <edge id=":0_11" function="internal">
        <lane id=":0_11_0" index="0" speed="13.89" length="9.50" shape="145.25,145.05 154.75,145.05"/>
    </edge>
    <edge id=":0_12" function="internal">
        <lane id=":0_12_0" index="0" speed="13.89" length="9.50" shape="145.25,148.35 154.75,148.35"/>
    </edge>
    <edge id=":0_13" function="internal">
        <lane id=":0_13_0" index="0" speed="13.89" length="3.27" shape="145.25,148.35 148.05,148.96 148.35,149.23"/>
    </edge>
    <edge id=":0_17" function="internal">
        <lane id=":0_17_0" index="0" speed="13.89" length="9.82" shape="148.35,149.23 150.05,150.77 151.25,153.81 151.65,158.05"/>
    </edge>
    <edge id=":1_0" function="internal">
        <lane id=":1_0_0" index="0" speed="13.89" length="18.75" shape="254.75,154.95 249.18,154.95 245.38,154.95 241.57,154.95 236.00,154.95"/>
    </edge>
    <edge id=":1_1" function="internal">
        <lane id=":1_1_0" index="0" speed="13.89" length="18.75" shape="254.75,151.65 249.18,151.65 245.38,151.65 241.57,151.65 236.00,151.65"/>
    </edge>
    <edge id=":1_2" function="internal">
        <lane id=":1_2_0" index="0" speed="13.89" length="6.51" shape="254.75,151.65 251.95,151.04 249.95,149.23 249.60,148.35"/>
    </edge>
    <edge id=":1_8" function="internal">
        <lane id=":1_8_0" index="0" speed="13.89" length="6.58" shape="249.60,148.35 248.75,146.19 248.35,141.95"/>
    </edge>
    <edge id=":1_3" function="internal">
        <lane id=":1_3_0" index="0" speed="13.89" length="5.00" shape="251.65,141.95 251.84,143.31 252.43,144.28 253.39,144.86 254.75,145.05"/>
    </edge>
    <edge id=":1_4" function="internal">
        <lane id=":1_4_0" index="0" speed="13.89" length="3.18" shape="251.65,141.95 250.94,145.05"/>
    </edge>
    <edge id=":1_9" function="internal">
        <lane id=":1_9_0" index="0" speed="13.89" length="17.48" shape="250.94,145.05 250.67,146.19 247.74,149.23 242.85,151.04 236.00,151.65"/>
    </edge>
    <edge id=":1_5" function="internal">
        <lane id=":1_5_0" index="0" speed="13.89" length="13.38" shape="236.00,145.05 241.40,144.86 245.26,144.28 247.58,143.31 248.35,141.95"/>
    </edge>
    <edge id=":1_6" function="internal">
        <lane id=":1_6_0" index="0" speed="13.89" length="18.75" shape="236.00,145.05 241.57,145.05 245.38,145.05 249.18,145.05 254.75,145.05"/>
    </edge>
    <edge id=":1_7" function="internal">
        <lane id=":1_7_0" index="0" speed="13.89" length="18.75" shape="236.00,148.35 241.57,148.35 245.38,148.35 249.18,148.35 254.75,148.35"/>
    </edge>
    <edge id=":10_0" function="internal">
        <lane id=":10_0_0" index="0" speed="13.89" length="0.10" shape="148.35,35.00 148.35,35.00"/>
    </edge>
    <edge id=":10_1" function="internal">
        <lane id=":10_1_0" index="0" speed="13.89" length="0.10" shape="151.65,35.00 151.65,35.00"/>
    </edge>
    <edge id=":12_0" function="internal">
        <lane id=":12_0_0" index="0" speed="13.89" length="0.10" shape="248.35,35.00 248.35,35.00"/>
    </edge>
    <edge id=":12_1" function="internal">
        <lane id=":12_1_0" index="0" speed="13.89" length="0.10" shape="251.65,35.00 251.65,35.00"/>
    </edge>
    <edge id=":14_0" function="internal">
        <lane id=":14_0_0" index="0" speed="13.89" length="0.10" shape="323.35,265.00 323.35,265.00"/>
    </edge>
    <edge id=":14_1" function="internal">
        <lane id=":14_1_0" index="0" speed="13.89" length="0.10" shape="326.65,265.00 326.65,265.00"/>
    </edge>
    <edge id=":16_0" function="internal">
        <lane id=":16_0_0" index="0" speed="13.89" length="0.10" shape="473.35,265.00 473.35,265.00"/>
    </edge>
    <edge id=":16_1" function="internal">
        <lane id=":16_1_0" index="0" speed="13.89" length="0.10" shape="476.65,265.00 476.65,265.00"/>
    </edge>
    <edge id=":18_0" function="internal">
        <lane id=":18_0_0" index="0" speed="13.89" length="0.10" shape="473.35,35.00 473.35,35.00"/>
    </edge>
    <edge id=":18_1" function="internal">
        <lane id=":18_1_0" index="0" speed="13.89" length="0.10" shape="476.65,35.00 476.65,35.00"/>
    </edge>
    <edge id=":2_0" function="internal">
        <lane id=":2_0_0" index="0" speed="13.89" length="5.00" shape="323.35,158.05 323.16,156.69 322.58,155.72 321.61,155.14 320.25,154.95"/>
    </edge>
    <edge id=":2_1" function="internal">
        <lane id=":2_1_0" index="0" speed="13.89" length="3.18" shape="323.35,158.05 324.06,154.95"/>
    </edge>
    <edge id=":2_8" function="internal">
        <lane id=":2_8_0" index="0" speed="13.89" length="17.48" shape="324.06,154.95 324.33,153.81 327.26,150.77 332.15,148.96 339.00,148.35"/>
    </edge>
    <edge id=":2_2" function="internal">
        <lane id=":2_2_0" index="0" speed="13.89" length="13.38" shape="339.00,154.95 333.60,155.14 329.74,155.72 327.42,156.69 326.65,158.05"/>
    </edge>
    <edge id=":2_3" function="internal">
        <lane id=":2_3_0" index="0" speed="13.89" length="18.75" shape="339.00,154.95 333.43,154.95 329.62,154.95 325.82,154.95 320.25,154.95"/>
    </edge>
    <edge id=":2_4" function="internal">
        <lane id=":2_4_0" index="0" speed="13.89" length="18.75" shape="339.00,151.65 333.43,151.65 329.62,151.65 325.82,151.65 320.25,151.65"/>
    </edge>
    <edge id=":2_5" function="internal">
        <lane id=":2_5_0" index="0" speed="13.89" length="18.75" shape="320.25,145.05 325.82,145.05 329.62,145.05 333.43,145.05 339.00,145.05"/>
    </edge>
    <edge id=":2_6" function="internal">
        <lane id=":2_6_0" index="0" speed="13.89" length="18.75" shape="320.25,148.35 325.82,148.35 329.62,148.35 333.43,148.35 339.00,148.35"/>
    </edge>
    <edge id=":2_7" function="internal">
        <lane id=":2_7_0" index="0" speed="13.89" length="6.51" shape="320.25,148.35 323.05,148.96 325.05,150.77 325.40,151.65"/>
    </edge>
    <edge id=":2_9" function="internal">
        <lane id=":2_9_0" index="0" speed="13.89" length="6.58" shape="325.40,151.65 326.25,153.81 326.65,158.05"/>
    </edge>
    <edge id=":3_0" function="internal">
        <lane id=":3_0_0" index="0" speed="13.89" length="5.00" shape="473.35,158.05 473.16,156.69 472.58,155.72 471.61,155.14 470.25,154.95"/>
    </edge>
    <edge id=":3_1" function="internal">
        <lane id=":3_1_0" index="0" speed="13.89" length="16.10" shape="473.35,158.05 473.35,154.13 473.35,150.00 473.35,145.87 473.35,141.95"/>
    </edge>
    <edge id=":3_2" function="internal">
        <lane id=":3_2_0" index="0" speed="13.89" length="3.11" shape="473.35,158.05 473.64,154.95"/>
    </edge>
    <edge id=":3_14" function="internal">
        <lane id=":3_14_0" index="0" speed="13.89" length="9.98" shape="473.64,154.95 473.75,153.81 474.95,150.77 476.95,148.96 479.75,148.35"/>
    </edge>
    <edge id=":3_3" function="internal">
        <lane id=":3_3_0" index="0" speed="13.89" length="5.00" shape="479.75,154.95 478.39,155.14 477.42,155.72 476.84,156.69 476.65,158.05"/>
    </edge>
    <edge id=":3_4" function="internal">
        <lane id=":3_4_0" index="0" speed="13.89" length="9.50" shape="479.75,154.95 470.25,154.95"/>
    </edge>
    <edge id=":3_5" function="internal">
        <lane id=":3_5_0" index="0" speed="13.89" length="9.50" shape="479.75,151.65 470.25,151.65"/>
    </edge>
    <edge id=":3_6" function="internal">
        <lane id=":3_6_0" index="0" speed="13.89" length="3.27" shape="479.75,151.65 476.95,151.04 476.65,150.77"/>
    </edge>
    <edge id=":3_15" function="internal">
        <lane id=":3_15_0" index="0" speed="13.89" length="9.82" shape="476.65,150.77 474.95,149.23 473.75,146.19 473.35,141.95"/>
    </edge>
    <edge id=":3_7" function="internal">
        <lane id=":3_7_0" index="0" speed="13.89" length="5.00" shape="476.65,141.95 476.84,143.31 477.42,144.28 478.39,144.86 479.75,145.05"/>
    </edge>
    <edge id=":3_8" function="internal">
        <lane id=":3_8_0" index="0" speed="13.89" length="16.10" shape="476.65,141.95 476.65,145.87 476.65,150.00 476.65,154.13 476.65,158.05"/>
    </edge>
    <edge id=":3_9" function="internal">
        <lane id=":3_9_0" index="0" speed="13.89" length="3.11" shape="476.65,141.95 476.36,145.05"/>
    </edge>
    <edge id=":3_16" function="internal">
        <lane id=":3_16_0" index="0" speed="13.89" length="9.98" shape="476.36,145.05 476.25,146.19 475.05,149.23 473.05,151.04 470.25,151.65"/>
    </edge>
    <edge id=":3_10" function="internal">
        <lane id=":3_10_0" index="0" speed="13.89" length="5.00" shape="470.25,145.05 471.61,144.86 472.58,144.28 473.16,143.31 473.35,141.95"/>
    </edge>
    <edge id=":3_11" function="internal">
        <lane id=":3_11_0" index="0" speed="13.89" length="9.50" shape="470.25,145.05 479.75,145.05"/>
    </edge>
    <edge id=":3_12" function="internal">
        <lane id=":3_12_0" index="0" speed="13.89" length="9.50" shape="470.25,148.35 479.75,148.35"/>
    </edge>
    <edge id=":3_13" function="internal">
        <lane id=":3_13_0" index="0" speed="13.89" length="3.27" shape="470.25,148.35 473.05,148.96 473.35,149.23"/>
    </edge>
    <edge id=":3_17" function="internal">
        <lane id=":3_17_0" index="0" speed="13.89" length="9.82" shape="473.35,149.23 475.05,150.77 476.25,153.81 476.65,158.05"/>
    </edge>
    <edge id=":4_0" function="internal">
        <lane id=":4_0_0" index="0" speed="13.89" length="0.10" shape="35.00,154.95 35.00,154.95"/>
    </edge>
    <edge id=":4_1" function="internal">
        <lane id=":4_1_0" index="0" speed="13.89" length="0.10" shape="35.00,151.65 35.00,151.65"/>
    </edge>
    <edge id=":4_2" function="internal">
        <lane id=":4_2_0" index="0" speed="13.89" length="0.10" shape="35.00,145.05 35.00,145.05"/>
    </edge>
    <edge id=":4_3" function="internal">
        <lane id=":4_3_0" index="0" speed="13.89" length="0.10" shape="35.00,148.35 35.00,148.35"/>
    </edge>
    <edge id=":5_0" function="internal">
        <lane id=":5_0_0" index="0" speed="13.89" length="0.10" shape="590.00,154.95 590.00,154.95"/>
    </edge>
    <edge id=":5_1" function="internal">
        <lane id=":5_1_0" index="0" speed="13.89" length="0.10" shape="590.00,151.65 590.00,151.65"/>
    </edge>
    <edge id=":5_2" function="internal">
        <lane id=":5_2_0" index="0" speed="13.89" length="0.10" shape="590.00,145.05 590.00,145.05"/>
    </edge>
    <edge id=":5_3" function="internal">
        <lane id=":5_3_0" index="0" speed="13.89" length="0.10" shape="590.00,148.35 590.00,148.35"/>
    </edge>
    <edge id=":8_0" function="internal">
        <lane id=":8_0_0" index="0" speed="13.89" length="0.10" shape="148.35,265.00 148.35,265.00"/>
    </edge>
    <edge id=":8_1" function="internal">
        <lane id=":8_1_0" index="0" speed="13.89" length="0.10" shape="151.65,265.00 151.65,265.00"/>
    </edge>

    <edge id="0:1" from="0" to="1" priority="3" type="uMajor">
        <lane id="0:1_0" index="0" speed="13.89" length="81.25" shape="154.75,145.05 236.00,145.05"/>
        <lane id="0:1_1" index="1" speed="13.89" length="81.25" shape="154.75,148.35 236.00,148.35"/>
    </edge>
    <edge id="0:10" from="0" to="10" priority="2" type="uMinor">
        <lane id="0:10_0" index="0" speed="13.89" length="106.95" shape="148.35,141.95 148.35,35.00"/>
    </edge>
    <edge id="0:4" from="0" to="4" priority="3" type="uMajor">
        <lane id="0:4_0" index="0" speed="13.89" length="110.25" shape="145.25,154.95 35.00,154.95"/>
        <lane id="0:4_1" index="1" speed="13.89" length="110.25" shape="145.25,151.65 35.00,151.65"/>
    </edge>
    <edge id="0:8" from="0" to="8" priority="2" type="uMinor">
        <lane id="0:8_0" index="0" speed="13.89" length="106.95" shape="151.65,158.05 151.65,265.00"/>
    </edge>
    <edge id="10:0" from="10" to="0" priority="2" type="uMinor">
        <lane id="10:0_0" index="0" speed="13.89" length="106.95" shape="151.65,35.00 151.65,141.95"/>
    </edge>
    <edge id="10:11" from="10" to="11" priority="2" type="uMinor">
        <lane id="10:11_0" index="0" speed="13.89" length="35.00" shape="148.35,35.00 148.35,0.00"/>
    </edge>
    <edge id="11:10" from="11" to="10" priority="2" type="uMinor">
        <lane id="11:10_0" index="0" speed="13.89" length="35.00" shape="151.65,0.00 151.65,35.00"/>
    </edge>
    <edge id="12:1" from="12" to="1" priority="2" type="uMinor">
        <lane id="12:1_0" index="0" speed="13.89" length="106.95" shape="251.65,35.00 251.65,141.95"/>
    </edge>
    <edge id="12:13" from="12" to="13" priority="2" type="uMinor">
        <lane id="12:13_0" index="0" speed="13.89" length="35.00" shape="248.35,35.00 248.35,0.00"/>
    </edge>
    <edge id="13:12" from="13" to="12" priority="2" type="uMinor">
        <lane id="13:12_0" index="0" speed="13.89" length="35.00" shape="251.65,0.00 251.65,35.00"/>
    </edge>
    <edge id="14:15" from="14" to="15" priority="2" type="uMinor">
        <lane id="14:15_0" index="0" speed="13.89" length="35.00" shape="326.65,265.00 326.65,300.00"/>
    </edge>
    <edge id="14:2" from="14" to="2" priority="2" type="uMinor">
        <lane id="14:2_0" index="0" speed="13.89" length="106.95" shape="323.35,265.00 323.35,158.05"/>
    </edge>
    <edge id="15:14" from="15" to="14" priority="2" type="uMinor">
        <lane id="15:14_0" index="0" speed="13.89" length="35.00" shape="323.35,300.00 323.35,265.00"/>
    </edge>
    <edge id="16:17" from="16" to="17" priority="2" type="uMinor">
        <lane id="16:17_0" index="0" speed="13.89" length="35.00" shape="476.65,265.00 476.65,300.00"/>
    </edge>
    <edge id="16:3" from="16" to="3" priority="2" type="uMinor">
        <lane id="16:3_0" index="0" speed="13.89" length="106.95" shape="473.35,265.00 473.35,158.05"/>
    </edge>
    <edge id="17:16" from="17" to="16" priority="2" type="uMinor">
        <lane id="17:16_0" index="0" speed="13.89" length="35.00" shape="473.35,300.00 473.35,265.00"/>
    </edge>
    <edge id="18:19" from="18" to="19" priority="2" type="uMinor">
        <lane id="18:19_0" index="0" speed="13.89" length="35.00" shape="473.35,35.00 473.35,0.00"/>
    </edge>
    <edge id="18:3" from="18" to="3" priority="2" type="uMinor">
        <lane id="18:3_0" index="0" speed="13.89" length="106.95" shape="476.65,35.00 476.65,141.95"/>
    </edge>
    <edge id="19:18" from="19" to="18" priority="2" type="uMinor">
        <lane id="19:18_0" index="0" speed="13.89" length="35.00" shape="476.65,0.00 476.65,35.00"/>
    </edge>
    <edge id="1:0" from="1" to="0" priority="3" type="uMajor">
        <lane id="1:0_0" index="0" speed="13.89" length="81.25" shape="236.00,154.95 154.75,154.95"/>
        <lane id="1:0_1" index="1" speed="13.89" length="81.25" shape="236.00,151.65 154.75,151.65"/>
    </edge>
    <edge id="1:12" from="1" to="12" priority="2" type="uMinor">
        <lane id="1:12_0" index="0" speed="13.89" length="106.95" shape="248.35,141.95 248.35,35.00"/>
    </edge>
    <edge id="1:2" from="1" to="2" priority="3" type="uMajor">
        <lane id="1:2_0" index="0" speed="13.89" length="65.50" shape="254.75,145.05 320.25,145.05"/>
        <lane id="1:2_1" index="1" speed="13.89" length="65.50" shape="254.75,148.35 320.25,148.35"/>
    </edge>
    <edge id="2:1" from="2" to="1" priority="3" type="uMajor">
        <lane id="2:1_0" index="0" speed="13.89" length="65.50" shape="320.25,154.95 254.75,154.95"/>
        <lane id="2:1_1" index="1" speed="13.89" length="65.50" shape="320.25,151.65 254.75,151.65"/>
    </edge>
    <edge id="2:14" from="2" to="14" priority="2" type="uMinor">
        <lane id="2:14_0" index="0" speed="13.89" length="106.95" shape="326.65,158.05 326.65,265.00"/>
    </edge>
    <edge id="2:3" from="2" to="3" priority="3" type="uMajor">
        <lane id="2:3_0" index="0" speed="13.89" length="131.25" shape="339.00,145.05 470.25,145.05"/>
        <lane id="2:3_1" index="1" speed="13.89" length="131.25" shape="339.00,148.35 470.25,148.35"/>
    </edge>
    <edge id="3:16" from="3" to="16" priority="2" type="uMinor">
        <lane id="3:16_0" index="0" speed="13.89" length="106.95" shape="476.65,158.05 476.65,265.00"/>
    </edge>
    <edge id="3:18" from="3" to="18" priority="2" type="uMinor">
        <lane id="3:18_0" index="0" speed="13.89" length="106.95" shape="473.35,141.95 473.35,35.00"/>
    </edge>
    <edge id="3:2" from="3" to="2" priority="3" type="uMajor">
        <lane id="3:2_0" index="0" speed="13.89" length="131.25" shape="470.25,154.95 339.00,154.95"/>
        <lane id="3:2_1" index="1" speed="13.89" length="131.25" shape="470.25,151.65 339.00,151.65"/>
    </edge>
    <edge id="3:5" from="3" to="5" priority="3" type="uMajor">
        <lane id="3:5_0" index="0" speed="13.89" length="110.25" shape="479.75,145.05 590.00,145.05"/>
        <lane id="3:5_1" index="1" speed="13.89" length="110.25" shape="479.75,148.35 590.00,148.35"/>
    </edge>
    <edge id="4:0" from="4" to="0" priority="3" type="uMajor">
        <lane id="4:0_0" index="0" speed="13.89" length="110.25" shape="35.00,145.05 145.25,145.05"/>
        <lane id="4:0_1" index="1" speed="13.89" length="110.25" shape="35.00,148.35 145.25,148.35"/>
    </edge>
    <edge id="4:6" from="4" to="6" priority="3" type="uMajor">
        <lane id="4:6_0" index="0" speed="13.89" length="35.00" shape="35.00,154.95 0.00,154.95"/>
        <lane id="4:6_1" index="1" speed="13.89" length="35.00" shape="35.00,151.65 0.00,151.65"/>
    </edge>
    <edge id="5:3" from="5" to="3" priority="3" type="uMajor">
        <lane id="5:3_0" index="0" speed="13.89" length="110.25" shape="590.00,154.95 479.75,154.95"/>
        <lane id="5:3_1" index="1" speed="13.89" length="110.25" shape="590.00,151.65 479.75,151.65"/>
    </edge>
    <edge id="5:7" from="5" to="7" priority="3" type="uMajor">
        <lane id="5:7_0" index="0" speed="13.89" length="35.00" shape="590.00,145.05 625.00,145.05"/>
        <lane id="5:7_1" index="1" speed="13.89" length="35.00" shape="590.00,148.35 625.00,148.35"/>
    </edge>
    <edge id="6:4" from="6" to="4" priority="3" type="uMajor">
        <lane id="6:4_0" index="0" speed="13.89" length="35.00" shape="0.00,145.05 35.00,145.05"/>
        <lane id="6:4_1" index="1" speed="13.89" length="35.00" shape="0.00,148.35 35.00,148.35"/>
    </edge>
    <edge id="7:5" from="7" to="5" priority="3" type="uMajor">
        <lane id="7:5_0" index="0" speed="13.89" length="35.00" shape="625.00,154.95 590.00,154.95"/>
        <lane id="7:5_1" index="1" speed="13.89" length="35.00" shape="625.00,151.65 590.00,151.65"/>
    </edge>
    <edge id="8:0" from="8" to="0" priority="2" type="uMinor">
        <lane id="8:0_0" index="0" speed="13.89" length="106.95" shape="148.35,265.00 148.35,158.05"/>
    </edge>
    <edge id="8:9" from="8" to="9" priority="2" type="uMinor">
        <lane id="8:9_0" index="0" speed="13.89" length="35.00" shape="151.65,265.00 151.65,300.00"/>
    </edge>
    <edge id="9:8" from="9" to="8" priority="2" type="uMinor">
        <lane id="9:8_0" index="0" speed="13.89" length="35.00" shape="148.35,300.00 148.35,265.00"/>
    </edge>

    <tlLogic id="0" type="static" programID="0" offset="0">
        <phase duration="31" state="rrrGGGgrrrGGGg"/>
        <phase duration="4" state="rrryyygrrryyyg"/>
        <phase duration="6" state="rrrrrrGrrrrrrG"/>
        <phase duration="4" state="rrrrrryrrrrrry"/>
        <phase duration="31" state="GGgrrrrGGgrrrr"/>
        <phase duration="4" state="yygrrrryygrrrr"/>
        <phase duration="6" state="rrGrrrrrrGrrrr"/>
        <phase duration="4" state="rryrrrrrryrrrr"/>
    </tlLogic>
    <tlLogic id="1" type="static" programID="0" offset="0">
        <phase duration="31" state="GGgrrGGG"/>
        <phase duration="4" state="yygrryyy"/>
        <phase duration="6" state="rrGrrrrr"/>
        <phase duration="4" state="rryrrrrr"/>
        <phase duration="31" state="rrrGGGrr"/>
        <phase duration="4" state="rrryyyrr"/>
    </tlLogic>
    <tlLogic id="2" type="static" programID="0" offset="0">
        <phase duration="31" state="rrGGGGGg"/>
        <phase duration="4" state="rryyyyyg"/>
        <phase duration="6" state="rrrrrrrG"/>
        <phase duration="4" state="rrrrrrry"/>
        <phase duration="31" state="GGGrrrrr"/>
        <phase duration="4" state="yyyrrrrr"/>
    </tlLogic>
    <tlLogic id="3" type="static" programID="0" offset="0">
        <phase duration="31" state="rrrGGGgrrrGGGg"/>
        <phase duration="4" state="rrryyygrrryyyg"/>
        <phase duration="6" state="rrrrrrGrrrrrrG"/>
        <phase duration="4" state="rrrrrryrrrrrry"/>
        <phase duration="31" state="GGgrrrrGGgrrrr"/>
        <phase duration="4" state="yygrrrryygrrrr"/>
        <phase duration="6" state="rrGrrrrrrGrrrr"/>
        <phase duration="4" state="rryrrrrrryrrrr"/>
    </tlLogic>

    <junction id="0" type="traffic_light" x="150.00" y="150.00" incLanes="8:0_0 1:0_0 1:0_1 10:0_0 4:0_0 4:0_1" intLanes=":0_0_0 :0_1_0 :0_14_0 :0_3_0 :0_4_0 :0_5_0 :0_15_0 :0_7_0 :0_8_0 :0_16_0 :0_10_0 :0_11_0 :0_12_0 :0_17_0" shape="146.75,158.05 153.25,158.05 154.75,156.55 154.75,143.45 153.25,141.95 146.75,141.95 145.25,143.45 145.25,156.55">
        <request index="0" response="00000000110000" foes="00001000110000" cont="0"/>
        <request index="1" response="11110001110000" foes="11111001110000" cont="0"/>
        <request index="2" response="11100111110000" foes="11100111110000" cont="1"/>
        <request index="3" response="00000000000000" foes="10000100000000" cont="0"/>
        <request index="4" response="00000000000000" foes="10001100000111" cont="0"/>
        <request index="5" response="00000000000000" foes="10001100000111" cont="0"/>
        <request index="6" response="01110000000000" foes="01111100000110" cont="1"/>
        <request index="7" response="01100000000000" foes="01100000000100" cont="0"/>
        <request index="8" response="11100001111000" foes="11100001111100" cont="0"/>
        <request index="9" response="11100001110011" foes="11100001110011" cont="1"/>
        <request index="10" response="00000000000000" foes="00000001000010" cont="0"/>
        <request index="11" response="00000000000000" foes="00001111000110" cont="0"/>
        <request index="12" response="00000000000000" foes="00001111000110" cont="0"/>
        <request index="13" response="00000000111000" foes="00001100111110" cont="1"/>
    </junction>
    <junction id="1" type="traffic_light" x="250.00" y="150.00" incLanes="2:1_0 2:1_1 12:1_0 0:1_0 0:1_1" intLanes=":1_0_0 :1_1_0 :1_8_0 :1_3_0 :1_9_0 :1_5_0 :1_6_0 :1_7_0" shape="254.75,156.55 254.75,143.45 253.25,141.95 246.75,141.95 236.00,143.45 236.00,156.55">
        <request index="0" response="00000000" foes="00010000" cont="0"/>
        <request index="1" response="00000000" foes="00010000" cont="0"/>
        <request index="2" response="11100000" foes="11110000" cont="1"/>
        <request index="3" response="11000000" foes="11000000" cont="0"/>
        <request index="4" response="11000111" foes="11000111" cont="1"/>
        <request index="5" response="00000000" foes="00000100" cont="0"/>
        <request index="6" response="00000000" foes="00011100" cont="0"/>
        <request index="7" response="00000000" foes="00011100" cont="0"/>
    </junction>
    <junction id="10" type="priority" x="150.00" y="35.00" incLanes="0:10_0 11:10_0" intLanes=":10_0_0 :10_1_0" shape="146.75,35.00 153.25,35.00 146.75,35.00">
        <request index="0" response="00" foes="00" cont="0"/>
        <request index="1" response="00" foes="00" cont="0"/>
    </junction>
    <junction id="11" type="dead_end" x="150.00" y="0.00" incLanes="10:11_0" intLanes="" shape="150.05,-0.00 153.25,-0.00 146.75,0.00 149.95,0.00"/>
    <junction id="12" type="priority" x="250.00" y="35.00" incLanes="1:12_0 13:12_0" intLanes=":12_0_0 :12_1_0" shape="246.75,35.00 253.25,35.00 246.75,35.00">
        <request index="0" response="00" foes="00" cont="0"/>
        <request index="1" response="00" foes="00" cont="0"/>
    </junction>
    <junction id="13" type="dead_end" x="250.00" y="0.00" incLanes="12:13_0" intLanes="" shape="250.05,-0.00 253.25,-0.00 246.75,0.00 249.95,0.00"/>
    <junction id="14" type="priority" x="325.00" y="265.00" incLanes="15:14_0 2:14_0" intLanes=":14_0_0 :14_1_0" shape="321.75,265.00 328.25,265.00 321.75,265.00">
        <request index="0" response="00" foes="00" cont="0"/>
        <request index="1" response="00" foes="00" cont="0"/>
    </junction>
    <junction id="15" type="dead_end" x="325.00" y="300.00" incLanes="14:15_0" intLanes="" shape="324.95,300.00 321.75,300.00 328.25,300.00 325.05,300.00"/>
    <junction id="16" type="priority" x="475.00" y="265.00" incLanes="17:16_0 3:16_0" intLanes=":16_0_0 :16_1_0" shape="471.75,265.00 478.25,265.00 471.75,265.00">
        <request index="0" response="00" foes="00" cont="0"/>
        <request index="1" response="00" foes="00" cont="0"/>
    </junction>
    <junction id="17" type="dead_end" x="475.00" y="300.00" incLanes="16:17_0" intLanes="" shape="474.95,300.00 471.75,300.00 478.25,300.00 475.05,300.00"/>
    <junction id="18" type="priority" x="475.00" y="35.00" incLanes="3:18_0 19:18_0" intLanes=":18_0_0 :18_1_0" shape="471.75,35.00 478.25,35.00 471.75,35.00">
        <request index="0" response="00" foes="00" cont="0"/>
        <request index="1" response="00" foes="00" cont="0"/>
    </junction>
    <junction id="19" type="dead_end" x="475.00" y="0.00" incLanes="18:19_0" intLanes="" shape="475.05,-0.00 478.25,-0.00 471.75,0.00 474.95,0.00"/>
    <junction id="2" type="traffic_light" x="325.00" y="150.00" incLanes="14:2_0 3:2_0 3:2_1 1:2_0 1:2_1" intLanes=":2_0_0 :2_8_0 :2_2_0 :2_3_0 :2_4_0 :2_5_0 :2_6_0 :2_9_0" shape="321.75,158.05 328.25,158.05 339.00,156.55 339.00,143.45 320.25,143.45 320.25,156.55">
        <request index="0" response="00011000" foes="00011000" cont="0"/>
        <request index="1" response="11111000" foes="11111000" cont="1"/>
        <request index="2" response="00000000" foes="10000000" cont="0"/>
        <request index="3" response="00000000" foes="10000011" cont="0"/>
        <request index="4" response="00000000" foes="10000011" cont="0"/>
        <request index="5" response="00000000" foes="00000010" cont="0"/>
        <request index="6" response="00000000" foes="00000010" cont="0"/>
        <request index="7" response="00011100" foes="00011110" cont="1"/>
    </junction>