<routes>
<vType id="typeCar" accel="0.8" decel="4.5" sigma="0.5" length="5" minGap="2.5" maxSpeed="25" guiShape="passenger"/>
<vType id="typeBus" accel="0.8" decel="4.5" sigma="0.5" length="17" minGap="3" maxSpeed="25" guiShape="bus"/>

<route id="8to6" edges="8:2 2:0 0:1 1:5 5:6" />
<route id="8to7" edges="8:2 2:0 0:1 1:3 3:7" />
<route id="8to10" edges="8:2 2:0 0:9 9:10" />
<route id="7to6" edges="7:3 3:1 1:5 5:6" />
<route id="7to8" edges="7:3 3:1 1:0 0:2 2:8" />
<route id="7to10" edges="7:3 3:1 1:0 0:9 9:10" />
<route id="6to8" edges="6:5 5:1 1:0 0:2 2:8" />
<route id="6to7" edges="6:5 5:1 1:3 3:7" />
<route id="6to10" edges="6:5 5:1 1:0 0:9 9:10" />
<route id="10to6" edges="10:9 9:0 0:1 1:5 5:6" />
<route id="10to7" edges="10:9 9:0 0:1 1:3 3:7" />
<route id="10to8" edges="10:9 9:0 0:2 2:8" />

    <vehicle id="0" type="typeCar" route="eastWest" depart="0" />
    <vehicle id="1" type="typeCar" route="westEast" depart="3" />
    <vehicle id="2" type="typeCar" route="eastSouth" depart="6" />
    <vehicle id="3" type="typeCar" route="westEast" depart="8" />
    <vehicle id="4" type="typeCar" route="westSouth" depart="10" />
    <vehicle id="5" type="typeCar" route="eastWest" depart="13" />
    <vehicle id="6" type="typeCar" route="southWest" depart="14" />
    <vehicle id="7" type="typeCar" route="southWest" depart="15" />
    <vehicle id="8" type="typeCar" route="westSouth" depart="23" />
    <vehicle id="9" type="typeCar" route="westEast" depart="28" />
    <vehicle id="10" type="typeCar" route="eastWest" depart="30" />
    <vehicle id="11" type="typeCar" route="westEast" depart="30" />
    <vehicle id="12" type="typeCar" route="southEast" depart="31" />
    <vehicle id="13" type="typeCar" route="southWest" depart="35" />
    <vehicle id="14" type="typeCar" route="westSouth" depart="39" />
    <vehicle id="15" type="typeCar" route="eastSouth" depart="40" />
    <vehicle id="16" type="typeCar" route="westEast" depart="44" />
    <vehicle id="17" type="typeCar" route="eastSouth" depart="45" />
    <vehicle id="18" type="typeCar" route="southEast" depart="54" />
    <vehicle id="19" type="typeCar" route="westEast" depart="56" />
    <vehicle id="20" type="typeCar" route="eastWest" depart="58" />
    <vehicle id="21" type="typeCar" route="eastWest" depart="59" />
    <vehicle id="22" type="typeCar" route="eastWest" depart="64" />
    <vehicle id="23" type="typeCar" route="westEast" depart="76" />
    <vehicle id="24" type="typeCar" route="eastWest" depart="84" />
    <vehicle id="25" type="typeCar" route="westEast" depart="87" />
    <vehicle id="26" type="typeCar" route="westEast" depart="89" />
    <vehicle id="27" type="typeCar" route="westEast" depart="90" />
    <vehicle id="28" type="typeCar" route="westSouth" depart="92" />
    <vehicle id="29" type="typeCar" route="westEast" depart="100" />
    <vehicle id="30" type="typeCar" route="eastSouth" depart="103" />
    <vehicle id="31" type="typeCar" route="eastWest" depart="105" />
    <vehicle id="32" type="typeCar" route="westEast" depart="108" />
    <vehicle id="33" type="typeCar" route="southWest" depart="108" />
    <vehicle id="34" type="typeCar" route="eastSouth" depart="109" />
    <vehicle id="35" type="typeCar" route="westEast" depart="109" />
    <vehicle id="36" type="typeCar" route="westEast" depart="111" />
    <vehicle id="37" type="typeCar" route="westEast" depart="112" />
    <vehicle id="38" type="typeCar" route="westSouth" depart="124" />
    <vehicle id="39" type="typeCar" route="westEast" depart="126" />
    <vehicle id="40" type="typeCar" route="westEast" depart="128" />
    <vehicle id="41" type="typeCar" route="eastSouth" depart="136" />
    <vehicle id="42" type="typeCar" route="eastWest" depart="138" />
    <vehicle id="43" type="typeCar" route="westEast" depart="142" />
    <vehicle id="44" type="typeCar" route="eastWest" depart="143" />
    <vehicle id="45" type="typeCar" route="westEast" depart="146" />
    <vehicle id="46" type="typeCar" route="eastWest" depart="150" />
    <vehicle id="47" type="typeCar" route="westEast" depart="153" />
    <vehicle id="48" type="typeCar" route="eastWest" depart="157" />
    <vehicle id="49" type="typeCar" route="westEast" depart="157" />
    <vehicle id="50" type="typeCar" route="eastSouth" depart="159" />
    <vehicle id="51" type="typeCar" route="westSouth" depart="159" />
    <vehicle id="52" type="typeCar" route="southWest" depart="159" />
    <vehicle id="53" type="typeCar" route="westEast" depart="162" />
    <vehicle id="54" type="typeCar" route="eastWest" depart="166" />
    <vehicle id="55" type="typeCar" route="westEast" depart="169" />
    <vehicle id="56" type="typeCar" route="eastWest" depart="171" />
    <vehicle id="57" type="typeCar" route="westSouth" depart="171" />
    <vehicle id="58" type="typeCar" route="eastSouth" depart="179" />
    <vehicle id="59" type="typeCar" route="eastWest" depart="180" />
    <vehicle id="60" type="typeCar" route="eastWest" depart="184" />
    <vehicle id="61" type="typeCar" route="southEast" depart="197" />
    <vehicle id="62" type="typeCar" route="westEast" depart="199" />
    <vehicle id="63" type="typeCar" route="eastSouth" depart="202" />
    <vehicle id="64" type="typeCar" route="eastWest" depart="205" />
    <vehicle id="65" type="typeCar" route="eastWest" depart="207" />
    <vehicle id="66" type="typeCar" route="westEast" depart="208" />
    <vehicle id="67" type="typeCar" route="westEast" depart="210" />
    <vehicle id="68" type="typeCar" route="westEast" depart="217" />
    <vehicle id="69" type="typeCar" route="eastSouth" depart="218" />
    <vehicle id="70" type="typeCar" route="eastSouth" depart="223" />
    <vehicle id="71" type="typeCar" route="southWest" depart="223" />
    <vehicle id="72" type="typeCar" route="westEast" depart="225" />
    <vehicle id="73" type="typeCar" route="westEast" depart="226" />
    <vehicle id="74" type="typeCar" route="eastWest" depart="229" />
    <vehicle id="75" type="typeCar" route="eastSouth" depart="241" />
    <vehicle id="76" type="typeCar" route="eastWest" depart="248" />
    <vehicle id="77" type="typeCar" route="westEast" depart="248" />
    <vehicle id="78" type="typeCar" route="westSouth" depart="256" />
    <vehicle id="79" type="typeCar" route="southWest" depart="261" />
    <vehicle id="80" type="typeCar" route="southEast" depart="263" />
    <vehicle id="81" type="typeCar" route="westEast" depart="266" />
    <vehicle id="82" type="typeCar" route="westEast" depart="268" />
    <vehicle id="83" type="typeCar" route="eastSouth" depart="269" />
    <vehicle id="84" type="typeCar" route="westEast" depart="270" />
    <vehicle id="85" type="typeCar" route="eastSouth" depart="273" />
    <vehicle id="86" type="typeCar" route="westSouth" depart="279" />
    <vehicle id="87" type="typeCar" route="southWest" depart="289" />
    <vehicle id="88" type="typeCar" route="westEast" depart="295" />
    <vehicle id="89" type="typeCar" route="eastWest" depart="296" />
    <vehicle id="90" type="typeCar" route="westSouth" depart="296" />
    <vehicle id="91" type="typeCar" route="westEast" depart="299" />
    <vehicle id="92" type="typeCar" route="westEast" depart="302" />
    <vehicle id="93" type="typeCar" route="southEast" depart="303" />
    <vehicle id="94" type="typeCar" route="eastSouth" depart="304" />
    <vehicle id="95" type="typeCar" route="westEast" depart="307" />
    <vehicle id="96" type="typeCar" route="westEast" depart="308" />
    <vehicle id="97" type="typeCar" route="westEast" depart="318" />
    <vehicle id="98" type="typeCar" route="westSouth" depart="319" />
    <vehicle id="99" type="typeCar" route="eastWest" depart="322" />
    <vehicle id="100" type="typeCar" route="westEast" depart="327" />
    <vehicle id="101" type="typeCar" route="eastWest" depart="329" />
    <vehicle id="102" type="typeCar" route="westSouth" depart="345" />
    <vehicle id="103" type="typeCar" route="southEast" depart="345" />
    <vehicle id="104" type="typeCar" route="eastWest" depart="355" />
    <vehicle id="105" type="typeCar" route="eastWest" depart="359" />
    <vehicle id="106" type="typeCar" route="eastWest" depart="361" />
    <vehicle id="107" type="typeCar" route="westEast" depart="361" />
    <vehicle id="108" type="typeCar" route="eastWest" depart="363" />
    <vehicle id="109" type="typeCar" route="eastWest" depart="374" />
    <vehicle id="110" type="typeCar" route="westEast" depart="374" />
    <vehicle id="111" type="typeCar" route="eastWest" depart="377" />
    <vehicle id="112" type="typeCar" route="westEast" depart="380" />
    <vehicle id="113" type="typeCar" route="westEast" depart="387" />
    <vehicle id="114" type="typeCar" route="southEast" depart="389" />
    <vehicle id="115" type="typeCar" route="eastWest" depart="390" />
    <vehicle id="116" type="typeCar" route="westEast" depart="392" />
    <vehicle id="117" type="typeCar" route="southWest" depart="401" />
    <vehicle id="118" type="typeCar" route="eastWest" depart="402" />
    <vehicle id="119" type="typeCar" route="westEast" depart="410" />
    <vehicle id="120" type="typeCar" route="westSouth" depart="412" />
    <vehicle id="121" type="typeCar" route="eastWest" depart="414" />
    <vehicle id="122" type="typeCar" route="westSouth" depart="414" />
    <vehicle id="123" type="typeCar" route="westEast" depart="416" />
    <vehicle id="124" type="typeCar" route="westEast" depart="419" />
    <vehicle id="125" type="typeCar" route="eastWest" depart="420" />
    <vehicle id="126" type="typeCar" route="southWest" depart="420" />
    <vehicle id="127" type="typeCar" route="southEast" depart="421" />
    <vehicle id="128" type="typeCar" route="eastWest" depart="425" />
    <vehicle id="129" type="typeCar" route="westEast" depart="432" />
    <vehicle id="130" type="typeCar" route="eastWest" depart="439" />
    <vehicle id="131" type="typeCar" route="eastWest" depart="440" />
    <vehicle id="132" type="typeCar" route="eastWest" depart="444" />
    <vehicle id="133" type="typeCar" route="eastWest" depart="446" />
    <vehicle id="134" type="typeCar" route="westEast" depart="446" />
    <vehicle id="135" type="typeCar" route="southWest" depart="456" />
    <vehicle id="136" type="typeCar" route="eastWest" depart="458" />
    <vehicle id="137" type="typeCar" route="eastSouth" depart="460" />
    <vehicle id="138" type="typeCar" route="westSouth" depart="462" />
    <vehicle id="139" type="typeCar" route="eastSouth" depart="463" />
    <vehicle id="140" type="typeCar" route="eastWest" depart="469" />
    <vehicle id="141" type="typeCar" route="southEast" depart="470" />
    <vehicle id="142" type="typeCar" route="eastWest" depart="478" />
    <vehicle id="143" type="typeCar" route="eastWest" depart="488" />
    <vehicle id="144" type="typeCar" route="southWest" depart="488" />
    <vehicle id="145" type="typeCar" route="eastWest" depart="493" />
    <vehicle id="146" type="typeCar" route="eastWest" depart="494" />
    <vehicle id="147" type="typeCar" route="westEast" depart="496" />
    <vehicle id="148" type="typeCar" route="eastWest" depart="500" />
    <vehicle id="149" type="typeCar" route="eastWest" depart="501" />
    <vehicle id="150" type="typeCar" route="eastWest" depart="504" />
    <vehicle id="151" type="typeCar" route="eastWest" depart="508" />
    <vehicle id="152" type="typeCar" route="eastWest" depart="510" />
    <vehicle id="153" type="typeCar" route="eastWest" depart="517" />
    <vehicle id="154" type="typeCar" route="eastWest" depart="520" />
    <vehicle id="155" type="typeCar" route="westEast" depart="523" />
    <vehicle id="156" type="typeCar" route="westEast" depart="535" />
    <vehicle id="157" type="typeCar" route="eastWest" depart="537" />
    <vehicle id="158" type="typeCar" route="eastSouth" depart="545" />
    <vehicle id="159" type="typeCar" route="eastWest" depart="545" />
    <vehicle id="160" type="typeCar" route="westSouth" depart="545" />
    <vehicle id="161" type="typeCar" route="eastWest" depart="556" />
    <vehicle id="162" type="typeCar" route="westSouth" depart="560" />
    <vehicle id="163" type="typeCar" route="westEast" depart="562" />
    <vehicle id="164" type="typeCar" route="westEast" depart="571" />
    <vehicle id="165" type="typeCar" route="eastWest" depart="572" />
    <vehicle id="166" type="typeCar" route="westEast" depart="577" />
    <vehicle id="167" type="typeCar" route="eastWest" depart="588" />
    <vehicle id="168" type="typeCar" route="eastWest" depart="592" />
    <vehicle id="169" type="typeCar" route="westSouth" depart="596" />
    <vehicle id="170" type="typeCar" route="westSouth" depart="597" />
    <vehicle id="171" type="typeCar" route="eastWest" depart="601" />
    <vehicle id="172" type="typeCar" route="westSouth" depart="604" />
    <vehicle id="173" type="typeCar" route="eastWest" depart="605" />
    <vehicle id="174" type="typeCar" route="eastWest" depart="616" />
    <vehicle id="175" type="typeCar" route="eastWest" depart="619" />
    <vehicle id="176" type="typeCar" route="westSouth" depart="620" />
    <vehicle id="177" type="typeCar" route="westSouth" depart="630" />
    <vehicle id="178" type="typeCar" route="westEast" depart="631" />
    <vehicle id="179" type="typeCar" route="westEast" depart="632" />
    <vehicle id="180" type="typeCar" route="eastSouth" depart="633" />
    <vehicle id="181" type="typeCar" route="eastWest" depart="634" />
    <vehicle id="182" type="typeCar" route="westSouth" depart="634" />
    <vehicle id="183" type="typeCar" route="westSouth" depart="639" />
    <vehicle id="184" type="typeCar" route="eastWest" depart="641" />
    <vehicle id="185" type="typeCar" route="westEast" depart="641" />
    <vehicle id="186" type="typeCar" route="eastSouth" depart="643" />
    <vehicle id="187" type="typeCar" route="eastWest" depart="644" />
    <vehicle id="188" type="typeCar" route="eastWest" depart="647" />
    <vehicle id="189" type="typeCar" route="southEast" depart="650" />
    <vehicle id="190" type="typeCar" route="southWest" depart="652" />
    <vehicle id="191" type="typeCar" route="westEast" depart="653" />
    <vehicle id="192" type="typeCar" route="eastWest" depart="656" />
    <vehicle id="193" type="typeCar" route="westEast" depart="657" />
    <vehicle id="194" type="typeCar" route="westEast" depart="660" />
    <vehicle id="195" type="typeCar" route="westEast" depart="663" />
    <vehicle id="196" type="typeCar" route="westEast" depart="665" />
    <vehicle id="197" type="typeCar" route="southWest" depart="665" />
    <vehicle id="198" type="typeCar" route="southWest" depart="668" />
    <vehicle id="199" type="typeCar" route="eastSouth" depart="674" />
    <vehicle id="200" type="typeCar" route="eastWest" depart="677" />
    <vehicle id="201" type="typeCar" route="eastSouth" depart="681" />
    <vehicle id="202" type="typeCar" route="eastWest" depart="685" />
    <vehicle id="203" type="typeCar" route="eastWest" depart="686" />
    <vehicle id="204" type="typeCar" route="westSouth" depart="686" />
    <vehicle id="205" type="typeCar" route="eastWest" depart="687" />
    <vehicle id="206" type="typeCar" route="eastSouth" depart="690" />
    <vehicle id="207" type="typeCar" route="eastSouth" depart="693" />
    <vehicle id="208" type="typeCar" route="westEast" depart="695" />
    <vehicle id="209" type="typeCar" route="southEast" depart="696" />
    <vehicle id="210" type="typeCar" route="southEast" depart="697" />
    <vehicle id="211" type="typeCar" route="eastWest" depart="698" />
    <vehicle id="212" type="typeCar" route="eastSouth" depart="702" />
    <vehicle id="213" type="typeCar" route="eastWest" depart="704" />
    <vehicle id="214" type="typeCar" route="westSouth" depart="710" />
    <vehicle id="215" type="typeCar" route="southEast" depart="717" />
    <vehicle id="216" type="typeCar" route="eastSouth" depart="729" />
    <vehicle id="217" type="typeCar" route="westEast" depart="729" />
    <vehicle id="218" type="typeCar" route="westEast" depart="733" />
    <vehicle id="219" type="typeCar" route="westEast" depart="739" />
    <vehicle id="220" type="typeCar" route="westEast" depart="741" />
    <vehicle id="221" type="typeCar" route="eastWest" depart="752" />
    <vehicle id="222" type="typeCar" route="westEast" depart="752" />
    <vehicle id="223" type="typeCar" route="westEast" depart="763" />
    <vehicle id="224" type="typeCar" route="westEast" depart="766" />
    <vehicle id="225" type="typeCar" route="westEast" depart="769" />
    <vehicle id="226" type="typeCar" route="westEast" depart="771" />
    <vehicle id="227" type="typeCar" route="eastWest" depart="772" />
    <vehicle id="228" type="typeCar" route="westEast" depart="777" />
    <vehicle id="229" type="typeCar" route="westEast" depart="782" />
    <vehicle id="230" type="typeCar" route="westEast" depart="784" />
    <vehicle id="231" type="typeCar" route="eastSouth" depart="786" />
    <vehicle id="232" type="typeCar" route="southWest" depart="789" />
    <vehicle id="233" type="typeCar" route="westEast" depart="790" />
    <vehicle id="234" type="typeCar" route="eastWest" depart="791" />
    <vehicle id="235" type="typeCar" route="westSouth" depart="791" />
    <vehicle id="236" type="typeCar" route="southWest" depart="800" />
    <vehicle id="237" type="typeCar" route="eastWest" depart="801" />
    <vehicle id="238" type="typeCar" route="eastWest" depart="803" />
    <vehicle id="239" type="typeCar" route="westSouth" depart="809" />
    <vehicle id="240" type="typeCar" route="westEast" depart="809" />
    <vehicle id="241" type="typeCar" route="southEast" depart="811" />
    <vehicle id="242" type="typeCar" route="eastWest" depart="815" />
    <vehicle id="243" type="typeCar" route="westEast" depart="818" />
    <vehicle id="244" type="typeCar" route="westEast" depart="828" />
    <vehicle id="245" type="typeCar" route="southEast" depart="829" />
    <vehicle id="246" type="typeCar" route="westEast" depart="830" />
    <vehicle id="247" type="typeCar" route="eastWest" depart="833" />
    <vehicle id="248" type="typeCar" route="westEast" depart="833" />
    <vehicle id="249" type="typeCar" route="westEast" depart="834" />
    <vehicle id="250" type="typeCar" route="westEast" depart="835" />
    <vehicle id="251" type="typeCar" route="eastSouth" depart="840" />
    <vehicle id="252" type="typeCar" route="eastWest" depart="840" />
    <vehicle id="253" type="typeCar" route="eastWest" depart="841" />
    <vehicle id="254" type="typeCar" route="westEast" depart="842" />
    <vehicle id="255" type="typeCar" route="southEast" depart="842" />
    <vehicle id="256" type="typeCar" route="westEast" depart="844" />
    <vehicle id="257" type="typeCar" route="westSouth" depart="848" />
    <vehicle id="258" type="typeCar" route="westEast" depart="850" />
    <vehicle id="259" type="typeCar" route="westEast" depart="851" />
    <vehicle id="260" type="typeCar" route="eastWest" depart="852" />
    <vehicle id="261" type="typeCar" route="westEast" depart="868" />
    <vehicle id="262" type="typeCar" route="eastSouth" depart="875" />
    <vehicle id="263" type="typeCar" route="eastWest" depart="879" />
    <vehicle id="264" type="typeCar" route="eastWest" depart="889" />
    <vehicle id="265" type="typeCar" route="eastWest" depart="890" />
    <vehicle id="266" type="typeCar" route="eastWest" depart="893" />
    <vehicle id="267" type="typeCar" route="westEast" depart="895" />
    <vehicle id="268" type="typeCar" route="eastWest" depart="898" />
    <vehicle id="269" type="typeCar" route="eastWest" depart="902" />
    <vehicle id="270" type="typeCar" route="eastWest" depart="907" />
    <vehicle id="271" type="typeCar" route="eastWest" depart="909" />
    <vehicle id="272" type="typeCar" route="eastWest" depart="910" />
    <vehicle id="273" type="typeCar" route="westEast" depart="910" />
    <vehicle id="274" type="typeCar" route="eastSouth" depart="912" />
    <vehicle id="275" type="typeCar" route="eastWest" depart="915" />
    <vehicle id="276" type="typeCar" route="southEast" depart="915" />
    <vehicle id="277" type="typeCar" route="eastWest" depart="922" />
    <vehicle id="278" type="typeCar" route="westEast" depart="922" />
    <vehicle id="279" type="typeCar" route="eastWest" depart="926" />
    <vehicle id="280" type="typeCar" route="westEast" depart="926" />
    <vehicle id="281" type="typeCar" route="southEast" depart="933" />
    <vehicle id="282" type="typeCar" route="eastWest" depart="934" />
    <vehicle id="283" type="typeCar" route="westEast" depart="944" />
    <vehicle id="284" type="typeCar" route="eastWest" depart="949" />
    <vehicle id="285" type="typeCar" route="eastWest" depart="950" />
    <vehicle id="286" type="typeCar" route="eastWest" depart="952" />
    <vehicle id="287" type="typeCar" route="southWest" depart="952" />
    <vehicle id="288" type="typeCar" route="eastWest" depart="953" />
    <vehicle id="289" type="typeCar" route="eastWest" depart="959" />
    <vehicle id="290" type="typeCar" route="westSouth" depart="962" />
    <vehicle id="291" type="typeCar" route="eastSouth" depart="964" />
    <vehicle id="292" type="typeCar" route="westEast" depart="965" />
    <vehicle id="293" type="typeCar" route="southEast" depart="965" />
    <vehicle id="294" type="typeCar" route="southWest" depart="967" />
    <vehicle id="295" type="typeCar" route="eastSouth" depart="969" />
    <vehicle id="296" type="typeCar" route="eastWest" depart="969" />
    <vehicle id="297" type="typeCar" route="westEast" depart="985" />
    <vehicle id="298" type="typeCar" route="southWest" depart="990" />
    <vehicle id="299" type="typeCar" route="eastWest" depart="992" />
    <vehicle id="300" type="typeCar" route="westEast" depart="993" />
    <vehicle id="301" type="typeCar" route="eastWest" depart="999" />
    <vehicle id="302" type="typeCar" route="southWest" depart="999" />
    <vehicle id="303" type="typeCar" route="westEast" depart="1001" />
    <vehicle id="304" type="typeCar" route="westEast" depart="1004" />
    <vehicle id="305" type="typeCar" route="southEast" depart="1006" />
    <vehicle id="306" type="typeCar" route="eastWest" depart="1010" />
    <vehicle id="307" type="typeCar" route="westEast" depart="1010" />
    <vehicle id="308" type="typeCar" route="westEast" depart="1011" />
    <vehicle id="309" type="typeCar" route="eastWest" depart="1013" />
    <vehicle id="310" type="typeCar" route="westSouth" depart="1015" />
    <vehicle id="311" type="typeCar" route="eastSouth" depart="1017" />
    <vehicle id="312" type="typeCar" route="westSouth" depart="1020" />
    <vehicle id="313" type="typeCar" route="eastSouth" depart="1025" />
    <vehicle id="314" type="typeCar" route="eastWest" depart="1031" />
    <vehicle id="315" type="typeCar" route="eastWest" depart="1032" />
    <vehicle id="316" type="typeCar" route="westEast" depart="1032" />
    <vehicle id="317" type="typeCar" route="southEast" depart="1037" />
    <vehicle id="318" type="typeCar" route="eastWest" depart="1047" />
    <vehicle id="319" type="typeCar" route="westSouth" depart="1047" />
    <vehicle id="320" type="typeCar" route="westEast" depart="1047" />
    <vehicle id="321" type="typeCar" route="eastWest" depart="1050" />
    <vehicle id="322" type="typeCar" route="southWest" depart="1050" />
    <vehicle id="323" type="typeCar" route="westSouth" depart="1052" />
    <vehicle id="324" type="typeCar" route="westSouth" depart="1060" />
    <vehicle id="325" type="typeCar" route="southWest" depart="1064" />
    <vehicle id="326" type="typeCar" route="eastWest" depart="1072" />
    <vehicle id="327" type="typeCar" route="westEast" depart="1072" />
    <vehicle id="328" type="typeCar" route="westEast" depart="1074" />
    <vehicle id="329" type="typeCar" route="westSouth" depart="1076" />
    <vehicle id="330" type="typeCar" route="eastWest" depart="1085" />
    <vehicle id="331" type="typeCar" route="westSouth" depart="1091" />
    <vehicle id="332" type="typeCar" route="westEast" depart="1091" />
    <vehicle id="333" type="typeCar" route="eastWest" depart="1099" />
    <vehicle id="334" type="typeCar" route="southEast" depart="1100" />
    <vehicle id="335" type="typeCar" route="eastWest" depart="1105" />
    <vehicle id="336" type="typeCar" route="westSouth" depart="1105" />
    <vehicle id="337" type="typeCar" route="eastWest" depart="1109" />
    <vehicle id="338" type="typeCar" route="westEast" depart="1114" />
    <vehicle id="339" type="typeCar" route="westEast" depart="1122" />
    <vehicle id="340" type="typeCar" route="westEast" depart="1124" />
    <vehicle id="341" type="typeCar" route="westEast" depart="1126" />
    <vehicle id="342" type="typeCar" route="eastWest" depart="1128" />
    <vehicle id="343" type="typeCar" route="westEast" depart="1134" />
    <vehicle id="344" type="typeCar" route="westEast" depart="1136" />
    <vehicle id="345" type="typeCar" route="westEast" depart="1137" />
    <vehicle id="346" type="typeCar" route="westEast" depart="1138" />
    <vehicle id="347" type="typeCar" route="eastWest" depart="1141" />
    <vehicle id="348" type="typeCar" route="westEast" depart="1142" />
    <vehicle id="349" type="typeCar" route="southWest" depart="1142" />
    <vehicle id="350" type="typeCar" route="eastSouth" depart="1146" />
    <vehicle id="351" type="typeCar" route="eastWest" depart="1149" />
    <vehicle id="352" type="typeCar" route="westEast" depart="1149" />
    <vehicle id="353" type="typeCar" route="eastWest" depart="1150" />
    <vehicle id="354" type="typeCar" route="westSouth" depart="1150" />
    <vehicle id="355" type="typeCar" route="westEast" depart="1152" />
    <vehicle id="356" type="typeCar" route="eastSouth" depart="1153" />
    <vehicle id="357" type="typeCar" route="eastWest" depart="1154" />
    <vehicle id="358" type="typeCar" route="westEast" depart="1155" />
    <vehicle id="359" type="typeCar" route="southEast" depart="1155" />
    <vehicle id="360" type="typeCar" route="westEast" depart="1156" />
    <vehicle id="361" type="typeCar" route="eastWest" depart="1160" />
    <vehicle id="362" type="typeCar" route="eastWest" depart="1167" />
    <vehicle id="363" type="typeCar" route="westEast" depart="1181" />
    <vehicle id="364" type="typeCar" route="eastWest" depart="1185" />
    <vehicle id="365" type="typeCar" route="westEast" depart="1189" />
    <vehicle id="366" type="typeCar" route="eastSouth" depart="1190" />
    <vehicle id="367" type="typeCar" route="eastWest" depart="1190" />
    <vehicle id="368" type="typeCar" route="westSouth" depart="1193" />
    <vehicle id="369" type="typeCar" route="westEast" depart="1195" />
    <vehicle id="370" type="typeCar" route="eastWest" depart="1196" />
    <vehicle id="371" type="typeCar" route="eastWest" depart="1200" />
    <vehicle id="372" type="typeCar" route="eastWest" depart="1210" />
    <vehicle id="373" type="typeCar" route="eastSouth" depart="1212" />
    <vehicle id="374" type="typeCar" route="eastWest" depart="1212" />
    <vehicle id="375" type="typeCar" route="westEast" depart="1212" />
    <vehicle id="376" type="typeCar" route="westEast" depart="1217" />
    <vehicle id="377" type="typeCar" route="southEast" depart="1218" />
    <vehicle id="378" type="typeCar" route="eastSouth" depart="1219" />
    <vehicle id="379" type="typeCar" route="southWest" depart="1219" />
    <vehicle id="380" type="typeCar" route="westEast" depart="1220" />
    <vehicle id="381" type="typeCar" route="eastWest" depart="1221" />
    <vehicle id="382" type="typeCar" route="eastWest" depart="1222" />
    <vehicle id="383" type="typeCar" route="eastSouth" depart="1224" />
    <vehicle id="384" type="typeCar" route="eastSouth" depart="1226" />
    <vehicle id="385" type="typeCar" route="eastWest" depart="1228" />
    <vehicle id="386" type="typeCar" route="westEast" depart="1229" />
    <vehicle id="387" type="typeCar" route="eastWest" depart="1231" />
    <vehicle id="388" type="typeCar" route="westEast" depart="1237" />
    <vehicle id="389" type="typeCar" route="southWest" depart="1239" />
    <vehicle id="390" type="typeCar" route="eastWest" depart="1240" />
    <vehicle id="391" type="typeCar" route="westEast" depart="1248" />
    <vehicle id="392" type="typeCar" route="eastWest" depart="1253" />
    <vehicle id="393" type="typeCar" route="westEast" depart="1262" />
    <vehicle id="394" type="typeCar" route="southEast" depart="1264" />
    <vehicle id="395" type="typeCar" route="westEast" depart="1270" />
    <vehicle id="396" type="typeCar" route="southEast" depart="1277" />
    <vehicle id="397" type="typeCar" route="eastWest" depart="1278" />
    <vehicle id="398" type="typeCar" route="eastSouth" depart="1282" />
    <vehicle id="399" type="typeCar" route="westEast" depart="1286" />
    <vehicle id="400" type="typeCar" route="eastWest" depart="1289" />
    <vehicle id="401" type="typeCar" route="westEast" depart="1290" />
    <vehicle id="402" type="typeCar" route="eastSouth" depart="1291" />
    <vehicle id="403" type="typeCar" route="eastWest" depart="1294" />
    <vehicle id="404" type="typeCar" route="eastWest" depart="1295" />
    <vehicle id="405" type="typeCar" route="westSouth" depart="1296" />
    <vehicle id="406" type="typeCar" route="westEast" depart="1297" />
    <vehicle id="407" type="typeCar" route="eastSouth" depart="1301" />
    <vehicle id="408" type="typeCar" route="westEast" depart="1301" />
    <vehicle id="409" type="typeCar" route="westSouth" depart="1309" />
    <vehicle id="410" type="typeCar" route="westSouth" depart="1310" />
    <vehicle id="411" type="typeCar" route="westEast" depart="1313" />
    <vehicle id="412" type="typeCar" route="eastWest" depart="1314" />
    <vehicle id="413" type="typeCar" route="southWest" depart="1317" />
    <vehicle id="414" type="typeCar" route="westSouth" depart="1319" />