<?xml version="1.0" encoding="UTF-8"?>

<!-- generated on Tue Mar 28 18:08:02 2017 by SUMO netconvert Version 0.29.0
<?xml version="1.0" encoding="UTF-8"?>

<configuration xmlns:xsi="http://www.w3.org/2001/XMLSchema-instance" xsi:noNamespaceSchemaLocation="http://sumo.dlr.de/xsd/netconvertConfiguration.xsd">

    <input>
        <node-files value="model.nod.xml"/>
        <edge-files value="model.edg.xml"/>
    </input>

    <output>
        <output-file value="model.net.xml"/>
    </output>

    <report>
        <verbose value="true"/>
    </report>

</configuration>
-->

<net version="0.27" xmlns:xsi="http://www.w3.org/2001/XMLSchema-instance" xsi:noNamespaceSchemaLocation="http://sumo.dlr.de/xsd/net_file.xsd">

    <location netOffset="-50.00,200.00" convBoundary="0.00,0.00,250.00,200.00" origBoundary="50.00,-200.00,300.00,0.00" projParameter="!"/>

    <edge id=":1_1_0_0" function="internal">
        <lane id=":1_1_0_0_0" index="0" speed="13.90" length="7.90" shape="3.25,151.65 1.11,151.34 -0.43,150.43 -1.34,148.89 -1.65,146.75"/>
    </edge>
    <edge id=":1_1_0_1" function="internal">
        <lane id=":1_1_0_1_0" index="0" speed="13.90" length="2.80" shape="3.25,151.65 2.01,150.83 1.60,150.00 1.77,149.65"/>
    </edge>
    <edge id=":1_1_0_4" function="internal">
        <lane id=":1_1_0_4_0" index="0" speed="13.90" length="2.02" shape="1.77,149.65 2.01,149.18 3.25,148.35"/>
    </edge>
    <edge id=":1_1_0_2" function="internal">
        <lane id=":1_1_0_2_0" index="0" speed="13.90" length="2.58" shape="1.65,146.75 1.75,147.45 2.05,147.95 2.55,148.25 3.25,148.35"/>
    </edge>
    <edge id=":1_1_0_3" function="internal">
        <lane id=":1_1_0_3_0" index="0" speed="13.90" length="2.20" shape="1.65,146.75 0.83,147.99 0.19,148.31"/>
    </edge>
    <edge id=":1_1_0_5" function="internal">
        <lane id=":1_1_0_5_0" index="0" speed="13.90" length="2.62" shape="0.19,148.31 0.00,148.40 -0.83,147.99 -1.65,146.75"/>
    </edge>
    <edge id=":1_1_5_0" function="internal">
        <lane id=":1_1_5_0_0" index="0" speed="13.90" length="0.10" shape="50.00,151.65 50.00,151.65"/>
    </edge>
    <edge id=":1_1_5_1" function="internal">
        <lane id=":1_1_5_1_0" index="0" speed="13.90" length="2.41" shape="50.00,151.65 48.76,150.83 48.35,150.00"/>
    </edge>
    <edge id=":1_1_5_4" function="internal">
        <lane id=":1_1_5_4_0" index="0" speed="13.90" length="2.41" shape="48.35,150.00 48.76,149.18 50.00,148.35"/>
    </edge>
    <edge id=":1_1_5_2" function="internal">
        <lane id=":1_1_5_2_0" index="0" speed="13.90" length="0.10" shape="50.00,148.35 50.00,148.35"/>
    </edge>
    <edge id=":1_1_5_3" function="internal">
        <lane id=":1_1_5_3_0" index="0" speed="13.90" length="2.41" shape="50.00,148.35 51.24,149.17 51.65,150.00"/>
    </edge>
    <edge id=":1_1_5_5" function="internal">
        <lane id=":1_1_5_5_0" index="0" speed="13.90" length="2.41" shape="51.65,150.00 51.24,150.82 50.00,151.65"/>
    </edge>
    <edge id=":1_1_7_0" function="internal">
        <lane id=":1_1_7_0_0" index="0" speed="13.90" length="0.10" shape="-1.65,100.00 -1.65,100.00"/>
    </edge>
    <edge id=":1_1_7_1" function="internal">
        <lane id=":1_1_7_1_0" index="0" speed="13.90" length="2.41" shape="-1.65,100.00 -0.83,98.76 0.00,98.35"/>
    </edge>
    <edge id=":1_1_7_4" function="internal">
        <lane id=":1_1_7_4_0" index="0" speed="13.90" length="2.41" shape="0.00,98.35 0.83,98.76 1.65,100.00"/>
    </edge>
    <edge id=":1_1_7_2" function="internal">
        <lane id=":1_1_7_2_0" index="0" speed="13.90" length="0.10" shape="1.65,100.00 1.65,100.00"/>
    </edge>
    <edge id=":1_1_7_3" function="internal">
        <lane id=":1_1_7_3_0" index="0" speed="13.90" length="2.41" shape="1.65,100.00 0.83,101.24 0.00,101.65"/>
    </edge>
    <edge id=":1_1_7_5" function="internal">
        <lane id=":1_1_7_5_0" index="0" speed="13.90" length="2.41" shape="0.00,101.65 -0.83,101.24 -1.65,100.00"/>
    </edge>
    <edge id=":1_2_0_0" function="internal">
        <lane id=":1_2_0_0_0" index="0" speed="13.90" length="9.50" shape="-1.65,54.75 -1.65,45.25"/>
    </edge>
    <edge id=":1_2_0_1" function="internal">
        <lane id=":1_2_0_1_0" index="0" speed="13.90" length="5.28" shape="-1.65,54.75 -1.25,51.95 -0.05,49.95 0.05,49.89"/>
    </edge>
    <edge id=":1_2_0_2" function="internal">
        <lane id=":1_2_0_2_0" index="0" speed="13.90" length="2.41" shape="-1.65,54.75 -0.83,53.51 0.00,53.10"/>
    </edge>
    <edge id=":1_2_0_9" function="internal">
        <lane id=":1_2_0_9_0" index="0" speed="13.90" length="5.04" shape="0.05,49.89 1.95,48.75 4.75,48.35"/>
    </edge>
    <edge id=":1_2_0_10" function="internal">
        <lane id=":1_2_0_10_0" index="0" speed="13.90" length="2.41" shape="0.00,53.10 0.83,53.51 1.65,54.75"/>
    </edge>
    <edge id=":1_2_0_3" function="internal">
        <lane id=":1_2_0_3_0" index="0" speed="13.90" length="5.00" shape="4.75,51.65 3.39,51.84 2.43,52.42 1.84,53.39 1.65,54.75"/>
    </edge>
    <edge id=":1_2_0_4" function="internal">
        <lane id=":1_2_0_4_0" index="0" speed="13.90" length="10.32" shape="4.75,51.65 1.95,51.25 -0.05,50.05 -1.25,48.05 -1.65,45.25"/>
    </edge>
    <edge id=":1_2_0_5" function="internal">
        <lane id=":1_2_0_5_0" index="0" speed="13.90" length="2.69" shape="4.75,51.65 3.51,50.82 3.10,50.00 3.23,49.75"/>
    </edge>
    <edge id=":1_2_0_11" function="internal">
        <lane id=":1_2_0_11_0" index="0" speed="13.90" length="2.13" shape="3.23,49.75 3.51,49.17 4.75,48.35"/>
    </edge>
    <edge id=":1_2_0_6" function="internal">
        <lane id=":1_2_0_6_0" index="0" speed="13.90" length="5.00" shape="1.65,45.25 1.84,46.61 2.42,47.57 3.39,48.16 4.75,48.35"/>
    </edge>
    <edge id=":1_2_0_7" function="internal">
        <lane id=":1_2_0_7_0" index="0" speed="13.90" length="9.50" shape="1.65,45.25 1.65,54.75"/>
    </edge>
    <edge id=":1_2_0_8" function="internal">
        <lane id=":1_2_0_8_0" index="0" speed="13.90" length="2.41" shape="1.65,45.25 0.83,46.49 0.00,46.90"/>
    </edge>
    <edge id=":1_2_0_12" function="internal">
        <lane id=":1_2_0_12_0" index="0" speed="13.90" length="2.41" shape="0.00,46.90 -0.83,46.49 -1.65,45.25"/>
    </edge>
    <edge id=":1_2_5_0" function="internal">
        <lane id=":1_2_5_0_0" index="0" speed="13.90" length="0.10" shape="50.00,51.65 50.00,51.65"/>
    </edge>
    <edge id=":1_2_5_1" function="internal">
        <lane id=":1_2_5_1_0" index="0" speed="13.90" length="2.41" shape="50.00,51.65 48.76,50.82 48.35,50.00"/>
    </edge>
    <edge id=":1_2_5_4" function="internal">
        <lane id=":1_2_5_4_0" index="0" speed="13.90" length="2.41" shape="48.35,50.00 48.76,49.17 50.00,48.35"/>
    </edge>
    <edge id=":1_2_5_2" function="internal">
        <lane id=":1_2_5_2_0" index="0" speed="13.90" length="0.10" shape="50.00,48.35 50.00,48.35"/>
    </edge>
    <edge id=":1_2_5_3" function="internal">
        <lane id=":1_2_5_3_0" index="0" speed="13.90" length="2.41" shape="50.00,48.35 51.24,49.18 51.65,50.00"/>
    </edge>
    <edge id=":1_2_5_5" function="internal">
        <lane id=":1_2_5_5_0" index="0" speed="13.90" length="2.41" shape="51.65,50.00 51.24,50.83 50.00,51.65"/>
    </edge>
    <edge id=":1_2_7_0" function="internal">
        <lane id=":1_2_7_0_0" index="0" speed="13.90" length="4.82" shape="-1.65,0.00 -0.83,-1.24 0.00,-1.65 0.83,-1.24 1.65,0.00"/>
    </edge>
    <edge id=":2_1_0_0" function="internal">
        <lane id=":2_1_0_0_0" index="0" speed="13.90" length="5.00" shape="98.35,154.75 98.16,153.39 97.57,152.43 96.61,151.84 95.25,151.65"/>
    </edge>
    <edge id=":2_1_0_1" function="internal">
        <lane id=":2_1_0_1_0" index="0" speed="13.90" length="9.50" shape="98.35,154.75 98.35,145.25"/>
    </edge>
    <edge id=":2_1_0_2" function="internal">
        <lane id=":2_1_0_2_0" index="0" speed="13.90" length="5.28" shape="98.35,154.75 98.75,151.95 99.95,149.95 100.05,149.89"/>
    </edge>
    <edge id=":2_1_0_3" function="internal">
        <lane id=":2_1_0_3_0" index="0" speed="13.90" length="2.41" shape="98.35,154.75 99.18,153.51 100.00,153.10"/>
    </edge>
    <edge id=":2_1_0_16" function="internal">
        <lane id=":2_1_0_16_0" index="0" speed="13.90" length="5.04" shape="100.05,149.89 101.95,148.75 104.75,148.35"/>
    </edge>
    <edge id=":2_1_0_17" function="internal">
        <lane id=":2_1_0_17_0" index="0" speed="13.90" length="2.41" shape="100.00,153.10 100.83,153.51 101.65,154.75"/>
    </edge>
    <edge id=":2_1_0_4" function="internal">
        <lane id=":2_1_0_4_0" index="0" speed="13.90" length="5.00" shape="104.75,151.65 103.39,151.84 102.43,152.43 101.84,153.39 101.65,154.75"/>
    </edge>
    <edge id=":2_1_0_5" function="internal">
        <lane id=":2_1_0_5_0" index="0" speed="13.90" length="9.50" shape="104.75,151.65 95.25,151.65"/>
    </edge>
    <edge id=":2_1_0_6" function="internal">
        <lane id=":2_1_0_6_0" index="0" speed="13.90" length="5.28" shape="104.75,151.65 101.95,151.25 99.95,150.05 99.89,149.95"/>
    </edge>
    <edge id=":2_1_0_7" function="internal">
        <lane id=":2_1_0_7_0" index="0" speed="13.90" length="2.41" shape="104.75,151.65 103.51,150.83 103.10,150.00"/>
    </edge>
    <edge id=":2_1_0_18" function="internal">
        <lane id=":2_1_0_18_0" index="0" speed="13.90" length="5.04" shape="99.89,149.95 98.75,148.05 98.35,145.25"/>
    </edge>
    <edge id=":2_1_0_19" function="internal">
        <lane id=":2_1_0_19_0" index="0" speed="13.90" length="2.41" shape="103.10,150.00 103.51,149.18 104.75,148.35"/>
    </edge>
    <edge id=":2_1_0_8" function="internal">
        <lane id=":2_1_0_8_0" index="0" speed="13.90" length="5.00" shape="101.65,145.25 101.84,146.61 102.43,147.57 103.39,148.16 104.75,148.35"/>
    </edge>
    <edge id=":2_1_0_9" function="internal">
        <lane id=":2_1_0_9_0" index="0" speed="13.90" length="9.50" shape="101.65,145.25 101.65,154.75"/>
    </edge>
    <edge id=":2_1_0_10" function="internal">
        <lane id=":2_1_0_10_0" index="0" speed="13.90" length="5.28" shape="101.65,145.25 101.25,148.05 100.05,150.05 99.95,150.11"/>
    </edge>
    <edge id=":2_1_0_11" function="internal">
        <lane id=":2_1_0_11_0" index="0" speed="13.90" length="2.41" shape="101.65,145.25 100.82,146.49 100.00,146.90"/>
    </edge>
    <edge id=":2_1_0_20" function="internal">
        <lane id=":2_1_0_20_0" index="0" speed="13.90" length="5.04" shape="99.95,150.11 98.05,151.25 95.25,151.65"/>
    </edge>
    <edge id=":2_1_0_21" function="internal">
        <lane id=":2_1_0_21_0" index="0" speed="13.90" length="2.41" shape="100.00,146.90 99.17,146.49 98.35,145.25"/>
    </edge>
    <edge id=":2_1_0_12" function="internal">
        <lane id=":2_1_0_12_0" index="0" speed="13.90" length="5.00" shape="95.25,148.35 96.61,148.16 97.57,147.57 98.16,146.61 98.35,145.25"/>
    </edge>
    <edge id=":2_1_0_13" function="internal">
        <lane id=":2_1_0_13_0" index="0" speed="13.90" length="9.50" shape="95.25,148.35 104.75,148.35"/>
    </edge>
    <edge id=":2_1_0_14" function="internal">
        <lane id=":2_1_0_14_0" index="0" speed="13.90" length="5.28" shape="95.25,148.35 98.05,148.75 100.05,149.95 100.11,150.05"/>
    </edge>
    <edge id=":2_1_0_15" function="internal">
        <lane id=":2_1_0_15_0" index="0" speed="13.90" length="2.41" shape="95.25,148.35 96.49,149.17 96.90,150.00"/>
    </edge>
    <edge id=":2_1_0_22" function="internal">
        <lane id=":2_1_0_22_0" index="0" speed="13.90" length="5.04" shape="100.11,150.05 101.25,151.95 101.65,154.75"/>
    </edge>
    <edge id=":2_1_0_23" function="internal">
        <lane id=":2_1_0_23_0" index="0" speed="13.90" length="2.41" shape="96.90,150.00 96.49,150.82 95.25,151.65"/>
    </edge>
    <edge id=":2_1_3_0" function="internal">
        <lane id=":2_1_3_0_0" index="0" speed="13.90" length="4.82" shape="101.65,200.00 100.82,201.24 100.00,201.65 99.17,201.24 98.35,200.00"/>
    </edge>
    <edge id=":2_1_5_0" function="internal">
        <lane id=":2_1_5_0_0" index="0" speed="13.90" length="0.10" shape="150.00,151.65 150.00,151.65"/>
    </edge>
    <edge id=":2_1_5_1" function="internal">
        <lane id=":2_1_5_1_0" index="0" speed="13.90" length="2.41" shape="150.00,151.65 148.76,150.83 148.35,150.00"/>
    </edge>
    <edge id=":2_1_5_4" function="internal">
        <lane id=":2_1_5_4_0" index="0" speed="13.90" length="2.41" shape="148.35,150.00 148.76,149.18 150.00,148.35"/>
    </edge>
    <edge id=":2_1_5_2" function="internal">
        <lane id=":2_1_5_2_0" index="0" speed="13.90" length="0.10" shape="150.00,148.35 150.00,148.35"/>
    </edge>
    <edge id=":2_1_5_3" function="internal">
        <lane id=":2_1_5_3_0" index="0" speed="13.90" length="2.41" shape="150.00,148.35 151.24,149.17 151.65,150.00"/>
    </edge>
    <edge id=":2_1_5_5" function="internal">
        <lane id=":2_1_5_5_0" index="0" speed="13.90" length="2.41" shape="151.65,150.00 151.24,150.82 150.00,151.65"/>
    </edge>
    <edge id=":2_1_7_0" function="internal">
        <lane id=":2_1_7_0_0" index="0" speed="13.90" length="0.10" shape="98.35,100.00 98.35,100.00"/>
    </edge>
    <edge id=":2_1_7_1" function="internal">
        <lane id=":2_1_7_1_0" index="0" speed="13.90" length="2.41" shape="98.35,100.00 99.18,98.76 100.00,98.35"/>
    </edge>
    <edge id=":2_1_7_4" function="internal">
        <lane id=":2_1_7_4_0" index="0" speed="13.90" length="2.41" shape="100.00,98.35 100.83,98.76 101.65,100.00"/>
    </edge>
    <edge id=":2_1_7_2" function="internal">
        <lane id=":2_1_7_2_0" index="0" speed="13.90" length="0.10" shape="101.65,100.00 101.65,100.00"/>
    </edge>
    <edge id=":2_1_7_3" function="internal">
        <lane id=":2_1_7_3_0" index="0" speed="13.90" length="2.41" shape="101.65,100.00 100.82,101.24 100.00,101.65"/>
    </edge>
    <edge id=":2_1_7_5" function="internal">
        <lane id=":2_1_7_5_0" index="0" speed="13.90" length="2.41" shape="100.00,101.65 99.17,101.24 98.35,100.00"/>
    </edge>
    <edge id=":2_2_0_0" function="internal">
        <lane id=":2_2_0_0_0" index="0" speed="13.90" length="5.00" shape="98.35,54.75 98.16,53.39 97.57,52.43 96.61,51.84 95.25,51.65"/>
    </edge>
    <edge id=":2_2_0_1" function="internal">
        <lane id=":2_2_0_1_0" index="0" speed="13.90" length="10.32" shape="98.35,54.75 98.75,51.95 99.95,49.95 101.95,48.75 104.75,48.35"/>
    </edge>
    <edge id=":2_2_0_2" function="internal">
        <lane id=":2_2_0_2_0" index="0" speed="13.90" length="2.69" shape="98.35,54.75 99.18,53.51 100.00,53.10 100.25,53.23"/>
    </edge>
    <edge id=":2_2_0_9" function="internal">
        <lane id=":2_2_0_9_0" index="0" speed="13.90" length="2.13" shape="100.25,53.23 100.83,53.51 101.65,54.75"/>
    </edge>
    <edge id=":2_2_0_3" function="internal">
        <lane id=":2_2_0_3_0" index="0" speed="13.90" length="5.00" shape="104.75,51.65 103.39,51.84 102.43,52.42 101.84,53.39 101.65,54.75"/>
    </edge>
    <edge id=":2_2_0_4" function="internal">
        <lane id=":2_2_0_4_0" index="0" speed="13.90" length="9.50" shape="104.75,51.65 95.25,51.65"/>
    </edge>
    <edge id=":2_2_0_5" function="internal">
        <lane id=":2_2_0_5_0" index="0" speed="13.90" length="2.41" shape="104.75,51.65 103.51,50.82 103.10,50.00"/>
    </edge>
    <edge id=":2_2_0_10" function="internal">
        <lane id=":2_2_0_10_0" index="0" speed="13.90" length="2.41" shape="103.10,50.00 103.51,49.17 104.75,48.35"/>
    </edge>
    <edge id=":2_2_0_6" function="internal">
        <lane id=":2_2_0_6_0" index="0" speed="13.90" length="9.50" shape="95.25,48.35 104.75,48.35"/>
    </edge>
    <edge id=":2_2_0_7" function="internal">
        <lane id=":2_2_0_7_0" index="0" speed="13.90" length="5.28" shape="95.25,48.35 98.05,48.75 100.05,49.95 100.11,50.05"/>
    </edge>
    <edge id=":2_2_0_8" function="internal">
        <lane id=":2_2_0_8_0" index="0" speed="13.90" length="2.41" shape="95.25,48.35 96.49,49.18 96.90,50.00"/>
    </edge>
    <edge id=":2_2_0_11" function="internal">
        <lane id=":2_2_0_11_0" index="0" speed="13.90" length="5.04" shape="100.11,50.05 101.25,51.95 101.65,54.75"/>
    </edge>
    <edge id=":2_2_0_12" function="internal">
        <lane id=":2_2_0_12_0" index="0" speed="13.90" length="2.41" shape="96.90,50.00 96.49,50.83 95.25,51.65"/>
    </edge>
    <edge id=":2_2_5_0" function="internal">
        <lane id=":2_2_5_0_0" index="0" speed="13.90" length="0.10" shape="150.00,51.65 150.00,51.65"/>
    </edge>
    <edge id=":2_2_5_1" function="internal">
        <lane id=":2_2_5_1_0" index="0" speed="13.90" length="2.41" shape="150.00,51.65 148.76,50.82 148.35,50.00"/>
    </edge>
    <edge id=":2_2_5_4" function="internal">
        <lane id=":2_2_5_4_0" index="0" speed="13.90" length="2.41" shape="148.35,50.00 148.76,49.17 150.00,48.35"/>
    </edge>
    <edge id=":2_2_5_2" function="internal">
        <lane id=":2_2_5_2_0" index="0" speed="13.90" length="0.10" shape="150.00,48.35 150.00,48.35"/>
    </edge>
    <edge id=":2_2_5_3" function="internal">
        <lane id=":2_2_5_3_0" index="0" speed="13.90" length="2.41" shape="150.00,48.35 151.24,49.18 151.65,50.00"/>
    </edge>
    <edge id=":2_2_5_5" function="internal">
        <lane id=":2_2_5_5_0" index="0" speed="13.90" length="2.41" shape="151.65,50.00 151.24,50.83 150.00,51.65"/>
    </edge>
    <edge id=":3_1_0_0" function="internal">
        <lane id=":3_1_0_0_0" index="0" speed="13.90" length="5.00" shape="198.35,154.75 198.16,153.39 197.57,152.43 196.61,151.84 195.25,151.65"/>
    </edge>
    <edge id=":3_1_0_1" function="internal">
        <lane id=":3_1_0_1_0" index="0" speed="13.90" length="9.50" shape="198.35,154.75 198.35,145.25"/>
    </edge>
    <edge id=":3_1_0_2" function="internal">
        <lane id=":3_1_0_2_0" index="0" speed="13.90" length="5.28" shape="198.35,154.75 198.75,151.95 199.95,149.95 200.05,149.89"/>
    </edge>
    <edge id=":3_1_0_3" function="internal">
        <lane id=":3_1_0_3_0" index="0" speed="13.90" length="2.41" shape="198.35,154.75 199.17,153.51 200.00,153.10"/>
    </edge>
    <edge id=":3_1_0_16" function="internal">
        <lane id=":3_1_0_16_0" index="0" speed="13.90" length="5.04" shape="200.05,149.89 201.95,148.75 204.75,148.35"/>
    </edge>
    <edge id=":3_1_0_17" function="internal">
        <lane id=":3_1_0_17_0" index="0" speed="13.90" length="2.41" shape="200.00,153.10 200.82,153.51 201.65,154.75"/>
    </edge>
    <edge id=":3_1_0_4" function="internal">
        <lane id=":3_1_0_4_0" index="0" speed="13.90" length="5.00" shape="204.75,151.65 203.39,151.84 202.42,152.43 201.84,153.39 201.65,154.75"/>
    </edge>
    <edge id=":3_1_0_5" function="internal">
        <lane id=":3_1_0_5_0" index="0" speed="13.90" length="9.50" shape="204.75,151.65 195.25,151.65"/>
    </edge>
    <edge id=":3_1_0_6" function="internal">
        <lane id=":3_1_0_6_0" index="0" speed="13.90" length="10.32" shape="204.75,151.65 201.95,151.25 199.95,150.05 198.75,148.05 198.35,145.25"/>
    </edge>
    <edge id=":3_1_0_7" function="internal">
        <lane id=":3_1_0_7_0" index="0" speed="13.90" length="4.82" shape="204.75,151.65 203.51,150.83 203.10,150.00 203.51,149.18 204.75,148.35"/>
    </edge>
    <edge id=":3_1_0_8" function="internal">
        <lane id=":3_1_0_8_0" index="0" speed="13.90" length="5.00" shape="201.65,145.25 201.84,146.61 202.43,147.57 203.39,148.16 204.75,148.35"/>
    </edge>
    <edge id=":3_1_0_9" function="internal">
        <lane id=":3_1_0_9_0" index="0" speed="13.90" length="9.50" shape="201.65,145.25 201.65,154.75"/>
    </edge>
    <edge id=":3_1_0_10" function="internal">
        <lane id=":3_1_0_10_0" index="0" speed="13.90" length="5.28" shape="201.65,145.25 201.25,148.05 200.05,150.05 199.95,150.11"/>
    </edge>
    <edge id=":3_1_0_11" function="internal">
        <lane id=":3_1_0_11_0" index="0" speed="13.90" length="2.41" shape="201.65,145.25 200.83,146.49 200.00,146.90"/>
    </edge>
    <edge id=":3_1_0_18" function="internal">
        <lane id=":3_1_0_18_0" index="0" speed="13.90" length="5.04" shape="199.95,150.11 198.05,151.25 195.25,151.65"/>
    </edge>
    <edge id=":3_1_0_19" function="internal">
        <lane id=":3_1_0_19_0" index="0" speed="13.90" length="2.41" shape="200.00,146.90 199.18,146.49 198.35,145.25"/>
    </edge>
    <edge id=":3_1_0_12" function="internal">
        <lane id=":3_1_0_12_0" index="0" speed="13.90" length="5.00" shape="195.25,148.35 196.61,148.16 197.58,147.57 198.16,146.61 198.35,145.25"/>
    </edge>
    <edge id=":3_1_0_13" function="internal">
        <lane id=":3_1_0_13_0" index="0" speed="13.90" length="9.50" shape="195.25,148.35 204.75,148.35"/>
    </edge>
    <edge id=":3_1_0_14" function="internal">
        <lane id=":3_1_0_14_0" index="0" speed="13.90" length="10.32" shape="195.25,148.35 198.05,148.75 200.05,149.95 201.25,151.95 201.65,154.75"/>
    </edge>
    <edge id=":3_1_0_15" function="internal">
        <lane id=":3_1_0_15_0" index="0" speed="13.90" length="4.82" shape="195.25,148.35 196.49,149.17 196.90,150.00 196.49,150.82 195.25,151.65"/>
    </edge>
    <edge id=":3_1_3_0" function="internal">
        <lane id=":3_1_3_0_0" index="0" speed="13.90" length="4.82" shape="201.65,200.00 200.83,201.24 200.00,201.65 199.18,201.24 198.35,200.00"/>
    </edge>
    <edge id=":3_1_5_0" function="internal">
        <lane id=":3_1_5_0_0" index="0" speed="13.90" length="4.82" shape="250.00,148.35 251.24,149.17 251.65,150.00 251.24,150.82 250.00,151.65"/>
    </edge>
    <edge id=":3_1_7_0" function="internal">
        <lane id=":3_1_7_0_0" index="0" speed="13.90" length="0.10" shape="198.35,100.00 198.35,100.00"/>
    </edge>
    <edge id=":3_1_7_1" function="internal">
        <lane id=":3_1_7_1_0" index="0" speed="13.90" length="2.41" shape="198.35,100.00 199.17,98.76 200.00,98.35"/>
    </edge>
    <edge id=":3_1_7_4" function="internal">
        <lane id=":3_1_7_4_0" index="0" speed="13.90" length="2.41" shape="200.00,98.35 200.82,98.76 201.65,100.00"/>
    </edge>
    <edge id=":3_1_7_2" function="internal">
        <lane id=":3_1_7_2_0" index="0" speed="13.90" length="0.10" shape="201.65,100.00 201.65,100.00"/>
    </edge>
    <edge id=":3_1_7_3" function="internal">
        <lane id=":3_1_7_3_0" index="0" speed="13.90" length="2.41" shape="201.65,100.00 200.83,101.24 200.00,101.65"/>
    </edge>
    <edge id=":3_1_7_5" function="internal">
        <lane id=":3_1_7_5_0" index="0" speed="13.90" length="2.41" shape="200.00,101.65 199.18,101.24 198.35,100.00"/>
    </edge>
    <edge id=":3_2_0_0" function="internal">
        <lane id=":3_2_0_0_0" index="0" speed="13.90" length="2.58" shape="198.35,53.25 198.25,52.55 197.95,52.05 197.45,51.75 196.75,51.65"/>
    </edge>
    <edge id=":3_2_0_1" function="internal">
        <lane id=":3_2_0_1_0" index="0" speed="13.90" length="2.20" shape="198.35,53.25 199.17,52.01 199.81,51.69"/>
    </edge>
    <edge id=":3_2_0_4" function="internal">
        <lane id=":3_2_0_4_0" index="0" speed="13.90" length="2.62" shape="199.81,51.69 200.00,51.60 200.82,52.01 201.65,53.25"/>
    </edge>
    <edge id=":3_2_0_2" function="internal">
        <lane id=":3_2_0_2_0" index="0" speed="13.90" length="7.90" shape="196.75,48.35 198.89,48.66 200.42,49.58 201.34,51.11 201.65,53.25"/>
    </edge>
    <edge id=":3_2_0_3" function="internal">
        <lane id=":3_2_0_3_0" index="0" speed="13.90" length="2.80" shape="196.75,48.35 197.99,49.18 198.40,50.00 198.23,50.35"/>
    </edge>
    <edge id=":3_2_0_5" function="internal">
        <lane id=":3_2_0_5_0" index="0" speed="13.90" length="2.02" shape="198.23,50.35 197.99,50.83 196.75,51.65"/>
    </edge>

    <edge id="1_1_0-1_1_5" from="1_1_0" to="1_1_5" priority="-1">
        <lane id="1_1_0-1_1_5_0" index="0" speed="13.90" length="46.75" shape="3.25,148.35 50.00,148.35"/>
    </edge>
    <edge id="1_1_0-1_1_7" from="1_1_0" to="1_1_7" priority="-1">
        <lane id="1_1_0-1_1_7_0" index="0" speed="13.90" length="46.75" shape="-1.65,146.75 -1.65,100.00"/>
    </edge>
    <edge id="1_1_5-1_1_0" from="1_1_5" to="1_1_0" priority="-1">
        <lane id="1_1_5-1_1_0_0" index="0" speed="13.90" length="46.75" shape="50.00,151.65 3.25,151.65"/>
    </edge>
    <edge id="1_1_5-2_1_0" from="1_1_5" to="2_1_0" priority="-1">
        <lane id="1_1_5-2_1_0_0" index="0" speed="13.90" length="45.25" shape="50.00,148.35 95.25,148.35"/>
    </edge>
    <edge id="1_1_7-1_1_0" from="1_1_7" to="1_1_0" priority="-1">
        <lane id="1_1_7-1_1_0_0" index="0" speed="13.90" length="46.75" shape="1.65,100.00 1.65,146.75"/>
    </edge>
    <edge id="1_1_7-1_2_0" from="1_1_7" to="1_2_0" priority="-1">
        <lane id="1_1_7-1_2_0_0" index="0" speed="13.90" length="45.25" shape="-1.65,100.00 -1.65,54.75"/>
    </edge>
    <edge id="1_2_0-1_1_7" from="1_2_0" to="1_1_7" priority="-1">
        <lane id="1_2_0-1_1_7_0" index="0" speed="13.90" length="45.25" shape="1.65,54.75 1.65,100.00"/>
    </edge>
    <edge id="1_2_0-1_2_5" from="1_2_0" to="1_2_5" priority="-1">
        <lane id="1_2_0-1_2_5_0" index="0" speed="13.90" length="45.25" shape="4.75,48.35 50.00,48.35"/>
    </edge>
    <edge id="1_2_0-1_2_7" from="1_2_0" to="1_2_7" priority="-1">
        <lane id="1_2_0-1_2_7_0" index="0" speed="13.90" length="45.25" shape="-1.65,45.25 -1.65,0.00"/>
    </edge>
    <edge id="1_2_5-1_2_0" from="1_2_5" to="1_2_0" priority="-1">
        <lane id="1_2_5-1_2_0_0" index="0" speed="13.90" length="45.25" shape="50.00,51.65 4.75,51.65"/>
    </edge>
    <edge id="1_2_5-2_2_0" from="1_2_5" to="2_2_0" priority="-1">
        <lane id="1_2_5-2_2_0_0" index="0" speed="13.90" length="45.25" shape="50.00,48.35 95.25,48.35"/>
    </edge>
    <edge id="1_2_7-1_2_0" from="1_2_7" to="1_2_0" priority="-1">
        <lane id="1_2_7-1_2_0_0" index="0" speed="13.90" length="45.25" shape="1.65,0.00 1.65,45.25"/>
    </edge>
    <edge id="2_1_0-1_1_5" from="2_1_0" to="1_1_5" priority="-1">
        <lane id="2_1_0-1_1_5_0" index="0" speed="13.90" length="45.25" shape="95.25,151.65 50.00,151.65"/>
    </edge>
    <edge id="2_1_0-2_1_3" from="2_1_0" to="2_1_3" priority="-1">
        <lane id="2_1_0-2_1_3_0" index="0" speed="13.90" length="45.25" shape="101.65,154.75 101.65,200.00"/>
    </edge>
    <edge id="2_1_0-2_1_5" from="2_1_0" to="2_1_5" priority="-1">
        <lane id="2_1_0-2_1_5_0" index="0" speed="13.90" length="45.25" shape="104.75,148.35 150.00,148.35"/>
    </edge>
    <edge id="2_1_0-2_1_7" from="2_1_0" to="2_1_7" priority="-1">
        <lane id="2_1_0-2_1_7_0" index="0" speed="13.90" length="45.25" shape="98.35,145.25 98.35,100.00"/>
    </edge>
    <edge id="2_1_3-2_1_0" from="2_1_3" to="2_1_0" priority="-1">
        <lane id="2_1_3-2_1_0_0" index="0" speed="13.90" length="45.25" shape="98.35,200.00 98.35,154.75"/>
    </edge>
    <edge id="2_1_5-2_1_0" from="2_1_5" to="2_1_0" priority="-1">
        <lane id="2_1_5-2_1_0_0" index="0" speed="13.90" length="45.25" shape="150.00,151.65 104.75,151.65"/>
    </edge>
    <edge id="2_1_5-3_1_0" from="2_1_5" to="3_1_0" priority="-1">
        <lane id="2_1_5-3_1_0_0" index="0" speed="13.90" length="45.25" shape="150.00,148.35 195.25,148.35"/>
    </edge>
    <edge id="2_1_7-2_1_0" from="2_1_7" to="2_1_0" priority="-1">
        <lane id="2_1_7-2_1_0_0" index="0" speed="13.90" length="45.25" shape="101.65,100.00 101.65,145.25"/>
    </edge>
    <edge id="2_1_7-2_2_0" from="2_1_7" to="2_2_0" priority="-1">
        <lane id="2_1_7-2_2_0_0" index="0" speed="13.90" length="45.25" shape="98.35,100.00 98.35,54.75"/>
    </edge>
    <edge id="2_2_0-1_2_5" from="2_2_0" to="1_2_5" priority="-1">
        <lane id="2_2_0-1_2_5_0" index="0" speed="13.90" length="45.25" shape="95.25,51.65 50.00,51.65"/>
    </edge>
    <edge id="2_2_0-2_1_7" from="2_2_0" to="2_1_7" priority="-1">
        <lane id="2_2_0-2_1_7_0" index="0" speed="13.90" length="45.25" shape="101.65,54.75 101.65,100.00"/>
    </edge>
    <edge id="2_2_0-2_2_5" from="2_2_0" to="2_2_5" priority="-1">
        <lane id="2_2_0-2_2_5_0" index="0" speed="13.90" length="45.25" shape="104.75,48.35 150.00,48.35"/>
    </edge>
    <edge id="2_2_5-2_2_0" from="2_2_5" to="2_2_0" priority="-1">
        <lane id="2_2_5-2_2_0_0" index="0" speed="13.90" length="45.25" shape="150.00,51.65 104.75,51.65"/>
    </edge>
    <edge id="2_2_5-3_2_0" from="2_2_5" to="3_2_0" priority="-1">
        <lane id="2_2_5-3_2_0_0" index="0" speed="13.90" length="46.75" shape="150.00,48.35 196.75,48.35"/>
    </edge>
    <edge id="3_1_0-2_1_5" from="3_1_0" to="2_1_5" priority="-1">
        <lane id="3_1_0-2_1_5_0" index="0" speed="13.90" length="45.25" shape="195.25,151.65 150.00,151.65"/>
    </edge>
    <edge id="3_1_0-3_1_3" from="3_1_0" to="3_1_3" priority="-1">
        <lane id="3_1_0-3_1_3_0" index="0" speed="13.90" length="45.25" shape="201.65,154.75 201.65,200.00"/>
    </edge>
    <edge id="3_1_0-3_1_5" from="3_1_0" to="3_1_5" priority="-1">
        <lane id="3_1_0-3_1_5_0" index="0" speed="13.90" length="45.25" shape="204.75,148.35 250.00,148.35"/>
    </edge>
    <edge id="3_1_0-3_1_7" from="3_1_0" to="3_1_7" priority="-1">
        <lane id="3_1_0-3_1_7_0" index="0" speed="13.90" length="45.25" shape="198.35,145.25 198.35,100.00"/>
    </edge>
    <edge id="3_1_3-3_1_0" from="3_1_3" to="3_1_0" priority="-1">
        <lane id="3_1_3-3_1_0_0" index="0" speed="13.90" length="45.25" shape="198.35,200.00 198.35,154.75"/>
    </edge>
    <edge id="3_1_5-3_1_0" from="3_1_5" to="3_1_0" priority="-1">
        <lane id="3_1_5-3_1_0_0" index="0" speed="13.90" length="45.25" shape="250.00,151.65 204.75,151.65"/>
    </edge>
    <edge id="3_1_7-3_1_0" from="3_1_7" to="3_1_0" priority="-1">
        <lane id="3_1_7-3_1_0_0" index="0" speed="13.90" length="45.25" shape="201.65,100.00 201.65,145.25"/>
    </edge>
    <edge id="3_1_7-3_2_0" from="3_1_7" to="3_2_0" priority="-1">