<configuration>
    <input>
        <node-files value="cross.nod.xml"/>
        <edge-files value="cross.edg.xml"/>
        <type-files value="cross.typ.xml"/>
    	<connection-files value="cross.con.xml"/>
    	<!--tllogic-files value="cross.tll.xml"/-->
    </input>

    <output>
        <output-file value="cross.net.xml"/>
    </output>
    
    <processing>
       <no-turnarounds value="true"/>
    </processing>

    <report>
        <verbose value="true"/>
    </report>

</configuration>
