<?xml version="1.0" encoding="UTF-8"?>

<!-- generated on Tue Feb  5 11:59:43 2013 by SUMO netconvert Version 0.16.0
<?xml version="1.0" encoding="UTF-8"?>

<configuration xmlns:xsi="http://www.w3.org/2001/XMLSchema-instance" xsi:noNamespaceSchemaLocation="http://sumo.sf.net/xsd/netconvertConfiguration.xsd">

    <input>
        <node-files value="manhattan.nod.xml"/>
        <edge-files value="manhattan.edg.xml"/>
        <type-files value="manhattan.typ.xml"/>
    </input>

    <output>
        <output-file value="manhattan.net.xml"/>
    </output>

    <processing>
        <no-turnarounds value="true"/>
    </processing>

    <report>
        <verbose value="true"/>
    </report>

</configuration>
-->

<net version="0.13" xmlns:xsi="http://www.w3.org/2001/XMLSchema-instance" xsi:noNamespaceSchemaLocation="http://sumo.sf.net/xsd/net_file.xsd">

    <location netOffset="0.00,0.00" convBoundary="0.00,0.00,480.00,480.00" origBoundary="0.00,0.00,480.00,480.00" projParameter="!"/>

    <edge id=":b1_0" function="internal">
        <lane id=":b1_0_0" index="0" speed="13.89" length="5.00" shape="118.35,124.75 118.16,123.39 117.57,122.43 116.61,121.84 115.25,121.65"/>
    </edge>
    <edge id=":b1_1" function="internal">
        <lane id=":b1_1_0" index="0" speed="13.89" length="9.50" shape="118.35,124.75 118.35,115.25"/>
    </edge>
    <edge id=":b1_2" function="internal">
        <lane id=":b1_2_0" index="0" speed="13.89" length="3.18" shape="118.35,124.75 118.75,121.95 118.93,121.65"/>
    </edge>
    <edge id=":b1_12" function="internal">
        <lane id=":b1_12_0" index="0" speed="13.89" length="7.14" shape="118.93,121.65 119.95,119.95 121.95,118.75 124.75,118.35"/>
    </edge>
    <edge id=":b1_3" function="internal">
        <lane id=":b1_3_0" index="0" speed="13.89" length="5.00" shape="124.75,121.65 123.39,121.84 122.43,122.43 121.84,123.39 121.65,124.75"/>
    </edge>
    <edge id=":b1_4" function="internal">
        <lane id=":b1_4_0" index="0" speed="13.89" length="9.50" shape="124.75,121.65 115.25,121.65"/>
    </edge>
    <edge id=":b1_5" function="internal">
        <lane id=":b1_5_0" index="0" speed="13.89" length="3.18" shape="124.75,121.65 121.95,121.25 121.65,121.07"/>
    </edge>
    <edge id=":b1_13" function="internal">
        <lane id=":b1_13_0" index="0" speed="13.89" length="7.14" shape="121.65,121.07 119.95,120.05 118.75,118.05 118.35,115.25"/>
    </edge>
    <edge id=":b1_6" function="internal">
        <lane id=":b1_6_0" index="0" speed="13.89" length="5.00" shape="121.65,115.25 121.84,116.61 122.43,117.58 123.39,118.16 124.75,118.35"/>
    </edge>
    <edge id=":b1_7" function="internal">
        <lane id=":b1_7_0" index="0" speed="13.89" length="9.50" shape="121.65,115.25 121.65,124.75"/>
    </edge>
    <edge id=":b1_8" function="internal">
        <lane id=":b1_8_0" index="0" speed="13.89" length="3.18" shape="121.65,115.25 121.25,118.05 121.07,118.35"/>
    </edge>
    <edge id=":b1_14" function="internal">
        <lane id=":b1_14_0" index="0" speed="13.89" length="7.14" shape="121.07,118.35 120.05,120.05 118.05,121.25 115.25,121.65"/>
    </edge>
    <edge id=":b1_9" function="internal">
        <lane id=":b1_9_0" index="0" speed="13.89" length="5.00" shape="115.25,118.35 116.61,118.16 117.57,117.57 118.16,116.61 118.35,115.25"/>
    </edge>
    <edge id=":b1_10" function="internal">
        <lane id=":b1_10_0" index="0" speed="13.89" length="9.50" shape="115.25,118.35 124.75,118.35"/>
    </edge>
    <edge id=":b1_11" function="internal">
        <lane id=":b1_11_0" index="0" speed="13.89" length="3.18" shape="115.25,118.35 118.05,118.75 118.35,118.93"/>
    </edge>
    <edge id=":b1_15" function="internal">
        <lane id=":b1_15_0" index="0" speed="13.89" length="7.14" shape="118.35,118.93 120.05,119.95 121.25,121.95 121.65,124.75"/>
    </edge>
    <edge id=":b2_0" function="internal">
        <lane id=":b2_0_0" index="0" speed="13.89" length="5.00" shape="238.35,124.75 238.16,123.39 237.57,122.43 236.61,121.84 235.25,121.65"/>
    </edge>
    <edge id=":b2_1" function="internal">
        <lane id=":b2_1_0" index="0" speed="13.89" length="9.50" shape="238.35,124.75 238.35,115.25"/>
    </edge>
    <edge id=":b2_2" function="internal">
        <lane id=":b2_2_0" index="0" speed="13.89" length="3.18" shape="238.35,124.75 238.75,121.95 238.93,121.65"/>
    </edge>
    <edge id=":b2_12" function="internal">
        <lane id=":b2_12_0" index="0" speed="13.89" length="7.14" shape="238.93,121.65 239.95,119.95 241.95,118.75 244.75,118.35"/>
    </edge>
    <edge id=":b2_3" function="internal">
        <lane id=":b2_3_0" index="0" speed="13.89" length="5.00" shape="244.75,121.65 243.39,121.84 242.42,122.43 241.84,123.39 241.65,124.75"/>
    </edge>
    <edge id=":b2_4" function="internal">
        <lane id=":b2_4_0" index="0" speed="13.89" length="9.50" shape="244.75,121.65 235.25,121.65"/>
    </edge>
    <edge id=":b2_5" function="internal">
        <lane id=":b2_5_0" index="0" speed="13.89" length="3.18" shape="244.75,121.65 241.95,121.25 241.65,121.07"/>
    </edge>
    <edge id=":b2_13" function="internal">
        <lane id=":b2_13_0" index="0" speed="13.89" length="7.14" shape="241.65,121.07 239.95,120.05 238.75,118.05 238.35,115.25"/>
    </edge>
    <edge id=":b2_6" function="internal">
        <lane id=":b2_6_0" index="0" speed="13.89" length="5.00" shape="241.65,115.25 241.84,116.61 242.43,117.58 243.39,118.16 244.75,118.35"/>
    </edge>
    <edge id=":b2_7" function="internal">
        <lane id=":b2_7_0" index="0" speed="13.89" length="9.50" shape="241.65,115.25 241.65,124.75"/>
    </edge>
    <edge id=":b2_8" function="internal">
        <lane id=":b2_8_0" index="0" speed="13.89" length="3.18" shape="241.65,115.25 241.25,118.05 241.07,118.35"/>
    </edge>
    <edge id=":b2_14" function="internal">
        <lane id=":b2_14_0" index="0" speed="13.89" length="7.14" shape="241.07,118.35 240.05,120.05 238.05,121.25 235.25,121.65"/>
    </edge>
    <edge id=":b2_9" function="internal">
        <lane id=":b2_9_0" index="0" speed="13.89" length="5.00" shape="235.25,118.35 236.61,118.16 237.58,117.57 238.16,116.61 238.35,115.25"/>
    </edge>
    <edge id=":b2_10" function="internal">
        <lane id=":b2_10_0" index="0" speed="13.89" length="9.50" shape="235.25,118.35 244.75,118.35"/>
    </edge>
    <edge id=":b2_11" function="internal">
        <lane id=":b2_11_0" index="0" speed="13.89" length="3.18" shape="235.25,118.35 238.05,118.75 238.35,118.93"/>
    </edge>
    <edge id=":b2_15" function="internal">
        <lane id=":b2_15_0" index="0" speed="13.89" length="7.14" shape="238.35,118.93 240.05,119.95 241.25,121.95 241.65,124.75"/>
    </edge>
    <edge id=":b3_0" function="internal">
        <lane id=":b3_0_0" index="0" speed="13.89" length="5.00" shape="358.35,124.75 358.16,123.39 357.58,122.43 356.61,121.84 355.25,121.65"/>
    </edge>
    <edge id=":b3_1" function="internal">
        <lane id=":b3_1_0" index="0" speed="13.89" length="9.50" shape="358.35,124.75 358.35,115.25"/>
    </edge>
    <edge id=":b3_2" function="internal">
        <lane id=":b3_2_0" index="0" speed="13.89" length="3.18" shape="358.35,124.75 358.75,121.95 358.93,121.65"/>
    </edge>
    <edge id=":b3_12" function="internal">
        <lane id=":b3_12_0" index="0" speed="13.89" length="7.14" shape="358.93,121.65 359.95,119.95 361.95,118.75 364.75,118.35"/>
    </edge>
    <edge id=":b3_3" function="internal">
        <lane id=":b3_3_0" index="0" speed="13.89" length="5.00" shape="364.75,121.65 363.39,121.84 362.42,122.43 361.84,123.39 361.65,124.75"/>
    </edge>
    <edge id=":b3_4" function="internal">
        <lane id=":b3_4_0" index="0" speed="13.89" length="9.50" shape="364.75,121.65 355.25,121.65"/>
    </edge>
    <edge id=":b3_5" function="internal">
        <lane id=":b3_5_0" index="0" speed="13.89" length="3.18" shape="364.75,121.65 361.95,121.25 361.65,121.07"/>
    </edge>
    <edge id=":b3_13" function="internal">
        <lane id=":b3_13_0" index="0" speed="13.89" length="7.14" shape="361.65,121.07 359.95,120.05 358.75,118.05 358.35,115.25"/>
    </edge>
    <edge id=":b3_6" function="internal">
        <lane id=":b3_6_0" index="0" speed="13.89" length="5.00" shape="361.65,115.25 361.84,116.61 362.42,117.57 363.39,118.16 364.75,118.35"/>
    </edge>
    <edge id=":b3_7" function="internal">
        <lane id=":b3_7_0" index="0" speed="13.89" length="9.50" shape="361.65,115.25 361.65,124.75"/>
    </edge>
    <edge id=":b3_8" function="internal">
        <lane id=":b3_8_0" index="0" speed="13.89" length="3.18" shape="361.65,115.25 361.25,118.05 361.07,118.35"/>
    </edge>
    <edge id=":b3_14" function="internal">
        <lane id=":b3_14_0" index="0" speed="13.89" length="7.14" shape="361.07,118.35 360.05,120.05 358.05,121.25 355.25,121.65"/>
    </edge>
    <edge id=":b3_9" function="internal">
        <lane id=":b3_9_0" index="0" speed="13.89" length="5.00" shape="355.25,118.35 356.61,118.16 357.58,117.57 358.16,116.61 358.35,115.25"/>
    </edge>
    <edge id=":b3_10" function="internal">
        <lane id=":b3_10_0" index="0" speed="13.89" length="9.50" shape="355.25,118.35 364.75,118.35"/>
    </edge>
    <edge id=":b3_11" function="internal">
        <lane id=":b3_11_0" index="0" speed="13.89" length="3.18" shape="355.25,118.35 358.05,118.75 358.35,118.93"/>
    </edge>
    <edge id=":b3_15" function="internal">
        <lane id=":b3_15_0" index="0" speed="13.89" length="7.14" shape="358.35,118.93 360.05,119.95 361.25,121.95 361.65,124.75"/>
    </edge>
    <edge id=":c1_0" function="internal">
        <lane id=":c1_0_0" index="0" speed="13.89" length="5.00" shape="118.35,244.75 118.16,243.39 117.57,242.42 116.61,241.84 115.25,241.65"/>
    </edge>
    <edge id=":c1_1" function="internal">
        <lane id=":c1_1_0" index="0" speed="13.89" length="9.50" shape="118.35,244.75 118.35,235.25"/>
    </edge>
    <edge id=":c1_2" function="internal">
        <lane id=":c1_2_0" index="0" speed="13.89" length="3.18" shape="118.35,244.75 118.75,241.95 118.93,241.65"/>
    </edge>
    <edge id=":c1_12" function="internal">
        <lane id=":c1_12_0" index="0" speed="13.89" length="7.14" shape="118.93,241.65 119.95,239.95 121.95,238.75 124.75,238.35"/>
    </edge>
    <edge id=":c1_3" function="internal">
        <lane id=":c1_3_0" index="0" speed="13.89" length="5.00" shape="124.75,241.65 123.39,241.84 122.43,242.43 121.84,243.39 121.65,244.75"/>
    </edge>
    <edge id=":c1_4" function="internal">
        <lane id=":c1_4_0" index="0" speed="13.89" length="9.50" shape="124.75,241.65 115.25,241.65"/>
    </edge>
    <edge id=":c1_5" function="internal">
        <lane id=":c1_5_0" index="0" speed="13.89" length="3.18" shape="124.75,241.65 121.95,241.25 121.65,241.07"/>
    </edge>
    <edge id=":c1_13" function="internal">
        <lane id=":c1_13_0" index="0" speed="13.89" length="7.14" shape="121.65,241.07 119.95,240.05 118.75,238.05 118.35,235.25"/>
    </edge>
    <edge id=":c1_6" function="internal">
        <lane id=":c1_6_0" index="0" speed="13.89" length="5.00" shape="121.65,235.25 121.84,236.61 122.43,237.58 123.39,238.16 124.75,238.35"/>
    </edge>
    <edge id=":c1_7" function="internal">
        <lane id=":c1_7_0" index="0" speed="13.89" length="9.50" shape="121.65,235.25 121.65,244.75"/>
    </edge>
    <edge id=":c1_8" function="internal">
        <lane id=":c1_8_0" index="0" speed="13.89" length="3.18" shape="121.65,235.25 121.25,238.05 121.07,238.35"/>
    </edge>
    <edge id=":c1_14" function="internal">
        <lane id=":c1_14_0" index="0" speed="13.89" length="7.14" shape="121.07,238.35 120.05,240.05 118.05,241.25 115.25,241.65"/>
    </edge>
    <edge id=":c1_9" function="internal">
        <lane id=":c1_9_0" index="0" speed="13.89" length="5.00" shape="115.25,238.35 116.61,238.16 117.58,237.57 118.16,236.61 118.35,235.25"/>
    </edge>
    <edge id=":c1_10" function="internal">
        <lane id=":c1_10_0" index="0" speed="13.89" length="9.50" shape="115.25,238.35 124.75,238.35"/>
    </edge>
    <edge id=":c1_11" function="internal">
        <lane id=":c1_11_0" index="0" speed="13.89" length="3.18" shape="115.25,238.35 118.05,238.75 118.35,238.93"/>
    </edge>
    <edge id=":c1_15" function="internal">
        <lane id=":c1_15_0" index="0" speed="13.89" length="7.14" shape="118.35,238.93 120.05,239.95 121.25,241.95 121.65,244.75"/>
    </edge>
    <edge id=":c2_0" function="internal">
        <lane id=":c2_0_0" index="0" speed="13.89" length="5.00" shape="238.35,244.75 238.16,243.39 237.57,242.42 236.61,241.84 235.25,241.65"/>
    </edge>
    <edge id=":c2_1" function="internal">
        <lane id=":c2_1_0" index="0" speed="13.89" length="9.50" shape="238.35,244.75 238.35,235.25"/>
    </edge>
    <edge id=":c2_2" function="internal">
        <lane id=":c2_2_0" index="0" speed="13.89" length="3.18" shape="238.35,244.75 238.75,241.95 238.93,241.65"/>
    </edge>
    <edge id=":c2_12" function="internal">
        <lane id=":c2_12_0" index="0" speed="13.89" length="7.14" shape="238.93,241.65 239.95,239.95 241.95,238.75 244.75,238.35"/>
    </edge>
    <edge id=":c2_3" function="internal">
        <lane id=":c2_3_0" index="0" speed="13.89" length="5.00" shape="244.75,241.65 243.39,241.84 242.42,242.43 241.84,243.39 241.65,244.75"/>
    </edge>
    <edge id=":c2_4" function="internal">
        <lane id=":c2_4_0" index="0" speed="13.89" length="9.50" shape="244.75,241.65 235.25,241.65"/>
    </edge>
    <edge id=":c2_5" function="internal">
        <lane id=":c2_5_0" index="0" speed="13.89" length="3.18" shape="244.75,241.65 241.95,241.25 241.65,241.07"/>
    </edge>
    <edge id=":c2_13" function="internal">
        <lane id=":c2_13_0" index="0" speed="13.89" length="7.14" shape="241.65,241.07 239.95,240.05 238.75,238.05 238.35,235.25"/>
    </edge>
    <edge id=":c2_6" function="internal">
        <lane id=":c2_6_0" index="0" speed="13.89" length="5.00" shape="241.65,235.25 241.84,236.61 242.43,237.58 243.39,238.16 244.75,238.35"/>
    </edge>
    <edge id=":c2_7" function="internal">
        <lane id=":c2_7_0" index="0" speed="13.89" length="9.50" shape="241.65,235.25 241.65,244.75"/>
    </edge>
    <edge id=":c2_8" function="internal">
        <lane id=":c2_8_0" index="0" speed="13.89" length="3.18" shape="241.65,235.25 241.25,238.05 241.07,238.35"/>
    </edge>
    <edge id=":c2_14" function="internal">
        <lane id=":c2_14_0" index="0" speed="13.89" length="7.14" shape="241.07,238.35 240.05,240.05 238.05,241.25 235.25,241.65"/>
    </edge>
    <edge id=":c2_9" function="internal">
        <lane id=":c2_9_0" index="0" speed="13.89" length="5.00" shape="235.25,238.35 236.61,238.16 237.58,237.57 238.16,236.61 238.35,235.25"/>
    </edge>
    <edge id=":c2_10" function="internal">
        <lane id=":c2_10_0" index="0" speed="13.89" length="9.50" shape="235.25,238.35 244.75,238.35"/>
    </edge>
    <edge id=":c2_11" function="internal">
        <lane id=":c2_11_0" index="0" speed="13.89" length="3.18" shape="235.25,238.35 238.05,238.75 238.35,238.93"/>
    </edge>
    <edge id=":c2_15" function="internal">
        <lane id=":c2_15_0" index="0" speed="13.89" length="7.14" shape="238.35,238.93 240.05,239.95 241.25,241.95 241.65,244.75"/>
    </edge>
    <edge id=":c3_0" function="internal">
        <lane id=":c3_0_0" index="0" speed="13.89" length="5.00" shape="358.35,244.75 358.16,243.39 357.58,242.42 356.61,241.84 355.25,241.65"/>
    </edge>
    <edge id=":c3_1" function="internal">
        <lane id=":c3_1_0" index="0" speed="13.89" length="9.50" shape="358.35,244.75 358.35,235.25"/>
    </edge>
    <edge id=":c3_2" function="internal">
        <lane id=":c3_2_0" index="0" speed="13.89" length="3.18" shape="358.35,244.75 358.75,241.95 358.93,241.65"/>
    </edge>
    <edge id=":c3_12" function="internal">
        <lane id=":c3_12_0" index="0" speed="13.89" length="7.14" shape="358.93,241.65 359.95,239.95 361.95,238.75 364.75,238.35"/>
    </edge>
    <edge id=":c3_3" function="internal">
        <lane id=":c3_3_0" index="0" speed="13.89" length="5.00" shape="364.75,241.65 363.39,241.84 362.42,242.43 361.84,243.39 361.65,244.75"/>
    </edge>
    <edge id=":c3_4" function="internal">
        <lane id=":c3_4_0" index="0" speed="13.89" length="9.50" shape="364.75,241.65 355.25,241.65"/>
    </edge>
    <edge id=":c3_5" function="internal">
        <lane id=":c3_5_0" index="0" speed="13.89" length="3.18" shape="364.75,241.65 361.95,241.25 361.65,241.07"/>
    </edge>
    <edge id=":c3_13" function="internal">
        <lane id=":c3_13_0" index="0" speed="13.89" length="7.14" shape="361.65,241.07 359.95,240.05 358.75,238.05 358.35,235.25"/>
    </edge>
    <edge id=":c3_6" function="internal">
        <lane id=":c3_6_0" index="0" speed="13.89" length="5.00" shape="361.65,235.25 361.84,236.61 362.42,237.58 363.39,238.16 364.75,238.35"/>
    </edge>
    <edge id=":c3_7" function="internal">
        <lane id=":c3_7_0" index="0" speed="13.89" length="9.50" shape="361.65,235.25 361.65,244.75"/>
    </edge>
    <edge id=":c3_8" function="internal">
        <lane id=":c3_8_0" index="0" speed="13.89" length="3.18" shape="361.65,235.25 361.25,238.05 361.07,238.35"/>
    </edge>
    <edge id=":c3_14" function="internal">
        <lane id=":c3_14_0" index="0" speed="13.89" length="7.14" shape="361.07,238.35 360.05,240.05 358.05,241.25 355.25,241.65"/>
    </edge>
    <edge id=":c3_9" function="internal">
        <lane id=":c3_9_0" index="0" speed="13.89" length="5.00" shape="355.25,238.35 356.61,238.16 357.58,237.57 358.16,236.61 358.35,235.25"/>
    </edge>
    <edge id=":c3_10" function="internal">
        <lane id=":c3_10_0" index="0" speed="13.89" length="9.50" shape="355.25,238.35 364.75,238.35"/>
    </edge>
    <edge id=":c3_11" function="internal">
        <lane id=":c3_11_0" index="0" speed="13.89" length="3.18" shape="355.25,238.35 358.05,238.75 358.35,238.93"/>
    </edge>
    <edge id=":c3_15" function="internal">
        <lane id=":c3_15_0" index="0" speed="13.89" length="7.14" shape="358.35,238.93 360.05,239.95 361.25,241.95 361.65,244.75"/>
    </edge>
    <edge id=":d1_0" function="internal">
        <lane id=":d1_0_0" index="0" speed="13.89" length="5.00" shape="118.35,364.75 118.16,363.39 117.57,362.42 116.61,361.84 115.25,361.65"/>
    </edge>
    <edge id=":d1_1" function="internal">
        <lane id=":d1_1_0" index="0" speed="13.89" length="9.50" shape="118.35,364.75 118.35,355.25"/>
    </edge>
    <edge id=":d1_2" function="internal">
        <lane id=":d1_2_0" index="0" speed="13.89" length="3.18" shape="118.35,364.75 118.75,361.95 118.93,361.65"/>
    </edge>
    <edge id=":d1_12" function="internal">
        <lane id=":d1_12_0" index="0" speed="13.89" length="7.14" shape="118.93,361.65 119.95,359.95 121.95,358.75 124.75,358.35"/>
    </edge>
    <edge id=":d1_3" function="internal">
        <lane id=":d1_3_0" index="0" speed="13.89" length="5.00" shape="124.75,361.65 123.39,361.84 122.43,362.42 121.84,363.39 121.65,364.75"/>
    </edge>
    <edge id=":d1_4" function="internal">
        <lane id=":d1_4_0" index="0" speed="13.89" length="9.50" shape="124.75,361.65 115.25,361.65"/>
    </edge>
    <edge id=":d1_5" function="internal">
        <lane id=":d1_5_0" index="0" speed="13.89" length="3.18" shape="124.75,361.65 121.95,361.25 121.65,361.07"/>
    </edge>
    <edge id=":d1_13" function="internal">
        <lane id=":d1_13_0" index="0" speed="13.89" length="7.14" shape="121.65,361.07 119.95,360.05 118.75,358.05 118.35,355.25"/>
    </edge>
    <edge id=":d1_6" function="internal">
        <lane id=":d1_6_0" index="0" speed="13.89" length="5.00" shape="121.65,355.25 121.84,356.61 122.43,357.58 123.39,358.16 124.75,358.35"/>
    </edge>
    <edge id=":d1_7" function="internal">
        <lane id=":d1_7_0" index="0" speed="13.89" length="9.50" shape="121.65,355.25 121.65,364.75"/>
    </edge>
    <edge id=":d1_8" function="internal">
        <lane id=":d1_8_0" index="0" speed="13.89" length="3.18" shape="121.65,355.25 121.25,358.05 121.07,358.35"/>
    </edge>
    <edge id=":d1_14" function="internal">
        <lane id=":d1_14_0" index="0" speed="13.89" length="7.14" shape="121.07,358.35 120.05,360.05 118.05,361.25 115.25,361.65"/>
    </edge>
    <edge id=":d1_9" function="internal">
        <lane id=":d1_9_0" index="0" speed="13.89" length="5.00" shape="115.25,358.35 116.61,358.16 117.58,357.58 118.16,356.61 118.35,355.25"/>
    </edge>
    <edge id=":d1_10" function="internal">
        <lane id=":d1_10_0" index="0" speed="13.89" length="9.50" shape="115.25,358.35 124.75,358.35"/>
    </edge>
    <edge id=":d1_11" function="internal">
        <lane id=":d1_11_0" index="0" speed="13.89" length="3.18" shape="115.25,358.35 118.05,358.75 118.35,358.93"/>
    </edge>
    <edge id=":d1_15" function="internal">
        <lane id=":d1_15_0" index="0" speed="13.89" length="7.14" shape="118.35,358.93 120.05,359.95 121.25,361.95 121.65,364.75"/>
    </edge>
    <edge id=":d2_0" function="internal">
        <lane id=":d2_0_0" index="0" speed="13.89" length="5.00" shape="238.35,364.75 238.16,363.39 237.57,362.42 236.61,361.84 235.25,361.65"/>
    </edge>
    <edge id=":d2_1" function="internal">
        <lane id=":d2_1_0" index="0" speed="13.89" length="9.50" shape="238.35,364.75 238.35,355.25"/>
    </edge>
    <edge id=":d2_2" function="internal">
        <lane id=":d2_2_0" index="0" speed="13.89" length="3.18" shape="238.35,364.75 238.75,361.95 238.93,361.65"/>
    </edge>
    <edge id=":d2_12" function="internal">
        <lane id=":d2_12_0" index="0" speed="13.89" length="7.14" shape="238.93,361.65 239.95,359.95 241.95,358.75 244.75,358.35"/>
    </edge>
    <edge id=":d2_3" function="internal">
        <lane id=":d2_3_0" index="0" speed="13.89" length="5.00" shape="244.75,361.65 243.39,361.84 242.42,362.42 241.84,363.39 241.65,364.75"/>
    </edge>
    <edge id=":d2_4" function="internal">
        <lane id=":d2_4_0" index="0" speed="13.89" length="9.50" shape="244.75,361.65 235.25,361.65"/>
    </edge>
    <edge id=":d2_5" function="internal">
        <lane id=":d2_5_0" index="0" speed="13.89" length="3.18" shape="244.75,361.65 241.95,361.25 241.65,361.07"/>
    </edge>
    <edge id=":d2_13" function="internal">
        <lane id=":d2_13_0" index="0" speed="13.89" length="7.14" shape="241.65,361.07 239.95,360.05 238.75,358.05 238.35,355.25"/>
    </edge>
    <edge id=":d2_6" function="internal">
        <lane id=":d2_6_0" index="0" speed="13.89" length="5.00" shape="241.65,355.25 241.84,356.61 242.43,357.58 243.39,358.16 244.75,358.35"/>
    </edge>
    <edge id=":d2_7" function="internal">
        <lane id=":d2_7_0" index="0" speed="13.89" length="9.50" shape="241.65,355.25 241.65,364.75"/>
    </edge>
    <edge id=":d2_8" function="internal">
        <lane id=":d2_8_0" index="0" speed="13.89" length="3.18" shape="241.65,355.25 241.25,358.05 241.07,358.35"/>
    </edge>
    <edge id=":d2_14" function="internal">
        <lane id=":d2_14_0" index="0" speed="13.89" length="7.14" shape="241.07,358.35 240.05,360.05 238.05,361.25 235.25,361.65"/>
    </edge>
    <edge id=":d2_9" function="internal">
        <lane id=":d2_9_0" index="0" speed="13.89" length="5.00" shape="235.25,358.35 236.61,358.16 237.58,357.58 238.16,356.61 238.35,355.25"/>
    </edge>
    <edge id=":d2_10" function="internal">
        <lane id=":d2_10_0" index="0" speed="13.89" length="9.50" shape="235.25,358.35 244.75,358.35"/>
    </edge>
    <edge id=":d2_11" function="internal">
        <lane id=":d2_11_0" index="0" speed="13.89" length="3.18" shape="235.25,358.35 238.05,358.75 238.35,358.93"/>
    </edge>
    <edge id=":d2_15" function="internal">
        <lane id=":d2_15_0" index="0" speed="13.89" length="7.14" shape="238.35,358.93 240.05,359.95 241.25,361.95 241.65,364.75"/>
    </edge>
    <edge id=":d3_0" function="internal">
        <lane id=":d3_0_0" index="0" speed="13.89" length="5.00" shape="358.35,364.75 358.16,363.39 357.58,362.42 356.61,361.84 355.25,361.65"/>
    </edge>
    <edge id=":d3_1" function="internal">
        <lane id=":d3_1_0" index="0" speed="13.89" length="9.50" shape="358.35,364.75 358.35,355.25"/>
    </edge>
    <edge id=":d3_2" function="internal">
        <lane id=":d3_2_0" index="0" speed="13.89" length="3.18" shape="358.35,364.75 358.75,361.95 358.93,361.65"/>
    </edge>
    <edge id=":d3_12" function="internal">
        <lane id=":d3_12_0" index="0" speed="13.89" length="7.14" shape="358.93,361.65 359.95,359.95 361.95,358.75 364.75,358.35"/>
    </edge>
    <edge id=":d3_3" function="internal">
        <lane id=":d3_3_0" index="0" speed="13.89" length="5.00" shape="364.75,361.65 363.39,361.84 362.42,362.42 361.84,363.39 361.65,364.75"/>
    </edge>
    <edge id=":d3_4" function="internal">
        <lane id=":d3_4_0" index="0" speed="13.89" length="9.50" shape="364.75,361.65 355.25,361.65"/>
    </edge>
    <edge id=":d3_5" function="internal">
        <lane id=":d3_5_0" index="0" speed="13.89" length="3.18" shape="364.75,361.65 361.95,361.25 361.65,361.07"/>
    </edge>
    <edge id=":d3_13" function="internal">
        <lane id=":d3_13_0" index="0" speed="13.89" length="7.14" shape="361.65,361.07 359.95,360.05 358.75,358.05 358.35,355.25"/>
    </edge>
    <edge id=":d3_6" function="internal">
        <lane id=":d3_6_0" index="0" speed="13.89" length="5.00" shape="361.65,355.25 361.84,356.61 362.42,357.58 363.39,358.16 364.75,358.35"/>
    </edge>
    <edge id=":d3_7" function="internal">
        <lane id=":d3_7_0" index="0" speed="13.89" length="9.50" shape="361.65,355.25 361.65,364.75"/>
    </edge>
    <edge id=":d3_8" function="internal">
        <lane id=":d3_8_0" index="0" speed="13.89" length="3.18" shape="361.65,355.25 361.25,358.05 361.07,358.35"/>
    </edge>
    <edge id=":d3_14" function="internal">
        <lane id=":d3_14_0" index="0" speed="13.89" length="7.14" shape="361.07,358.35 360.05,360.05 358.05,361.25 355.25,361.65"/>
    </edge>
    <edge id=":d3_9" function="internal">
        <lane id=":d3_9_0" index="0" speed="13.89" length="5.00" shape="355.25,358.35 356.61,358.16 357.58,357.58 358.16,356.61 358.35,355.25"/>
    </edge>
    <edge id=":d3_10" function="internal">
        <lane id=":d3_10_0" index="0" speed="13.89" length="9.50" shape="355.25,358.35 364.75,358.35"/>
    </edge>
    <edge id=":d3_11" function="internal">
        <lane id=":d3_11_0" index="0" speed="13.89" length="3.18" shape="355.25,358.35 358.05,358.75 358.35,358.93"/>
    </edge>
    <edge id=":d3_15" function="internal">
        <lane id=":d3_15_0" index="0" speed="13.89" length="7.14" shape="358.35,358.93 360.05,359.95 361.25,361.95 361.65,364.75"/>
    </edge>

    <edge id="a1:b1" from="a1" to="b1" priority="2" type="uMinor">
        <lane id="a1:b1_0" index="0" speed="13.89" length="115.25" shape="121.65,0.00 121.65,115.25"/>
    </edge>
    <edge id="a2:b2" from="a2" to="b2" priority="2" type="uMinor">
        <lane id="a2:b2_0" index="0" speed="13.89" length="115.25" shape="241.65,0.00 241.65,115.25"/>
    </edge>
    <edge id="a3:b3" from="a3" to="b3" priority="2" type="uMinor">
        <lane id="a3:b3_0" index="0" speed="13.89" length="115.25" shape="361.65,0.00 361.65,115.25"/>
    </edge>
    <edge id="b0:b1" from="b0" to="b1" priority="2" type="uMinor">
        <lane id="b0:b1_0" index="0" speed="13.89" length="115.25" shape="0.00,118.35 115.25,118.35"/>
    </edge>
    <edge id="b1:a1" from="b1" to="a1" priority="2" type="uMinor">
        <lane id="b1:a1_0" index="0" speed="13.89" length="115.25" shape="118.35,115.25 118.35,0.00"/>
    </edge>
    <edge id="b1:b0" from="b1" to="b0" priority="2" type="uMinor">
        <lane id="b1:b0_0" index="0" speed="13.89" length="115.25" shape="115.25,121.65 0.00,121.65"/>
    </edge>
    <edge id="b1:b2" from="b1" to="b2" priority="2" type="uMinor">
        <lane id="b1:b2_0" index="0" speed="13.89" length="110.50" shape="124.75,118.35 235.25,118.35"/>
    </edge>
    <edge id="b1:c1" from="b1" to="c1" priority="2" type="uMinor">
        <lane id="b1:c1_0" index="0" speed="13.89" length="110.50" shape="121.65,124.75 121.65,235.25"/>
    </edge>
    <edge id="b2:a2" from="b2" to="a2" priority="2" type="uMinor">
        <lane id="b2:a2_0" index="0" speed="13.89" length="115.25" shape="238.35,115.25 238.35,0.00"/>
    </edge>
    <edge id="b2:b1" from="b2" to="b1" priority="2" type="uMinor">
        <lane id="b2:b1_0" index="0" speed="13.89" length="110.50" shape="235.25,121.65 124.75,121.65"/>
    </edge>
    <edge id="b2:b3" from="b2" to="b3" priority="2" type="uMinor">
        <lane id="b2:b3_0" index="0" speed="13.89" length="110.50" shape="244.75,118.35 355.25,118.35"/>
    </edge>
    <edge id="b2:c2" from="b2" to="c2" priority="2" type="uMinor">
        <lane id="b2:c2_0" index="0" speed="13.89" length="110.50" shape="241.65,124.75 241.65,235.25"/>
    </edge>
    <edge id="b3:a3" from="b3" to="a3" priority="2" type="uMinor">
        <lane id="b3:a3_0" index="0" speed="13.89" length="115.25" shape="358.35,115.25 358.35,0.00"/>
    </edge>
    <edge id="b3:b2" from="b3" to="b2" priority="2" type="uMinor">
        <lane id="b3:b2_0" index="0" speed="13.89" length="110.50" shape="355.25,121.65 244.75,121.65"/>
    </edge>
    <edge id="b3:b4" from="b3" to="b4" priority="2" type="uMinor">
        <lane id="b3:b4_0" index="0" speed="13.89" length="115.25" shape="364.75,118.35 480.00,118.35"/>
    </edge>
    <edge id="b3:c3" from="b3" to="c3" priority="2" type="uMinor">
        <lane id="b3:c3_0" index="0" speed="13.89" length="110.50" shape="361.65,124.75 361.65,235.25"/>
    </edge>
    <edge id="b4:b3" from="b4" to="b3" priority="2" type="uMinor">
        <lane id="b4:b3_0" index="0" speed="13.89" length="115.25" shape="480.00,121.65 364.75,121.65"/>
    </edge>
    <edge id="c0:c1" from="c0" to="c1" priority="2" type="uMinor">