<?xml version="1.0" encoding="UTF-8"?>
<connections xmlns:xsi="http://www.w3.org/2001/XMLSchema-instance" xsi:noNamespaceSchemaLocation="http://sumo.dlr.de/xsd/connections_file.xsd">
	<connection from="1_1_0-1_1_5" to="1_1_5-2_1_0" />
	<connection from="2_1_0-1_1_5" to="1_1_5-1_1_0" />
	<connection from="2_1_0-2_1_5" to="2_1_5-3_1_0" />
	<connection from="3_1_0-2_1_5" to="2_1_5-2_1_0" />
	<connection from="2_1_0-2_1_7" to="2_1_7-2_2_0" />
	<connection from="2_2_0-2_1_7" to="2_1_7-2_1_0" />
	<connection from="3_1_0-3_1_8" to="3_1_8-2_2_0" />
	<connection from="2_2_0-3_1_8" to="3_1_8-3_1_0" />
	<connection from="2_2_0-2_2_5" to="2_2_5-3_2_0" />
	<connection from="3_2_0-2_2_5" to="2_2_5-2_2_0" />
	<connection from="3_1_0-3_1_7" to="3_1_7-3_2_0" />
	<connection from="3_2_0-3_1_7" to="3_1_7-3_1_0" />
<!--Generated by District-->
</connections>
