<?xml version="1.0" encoding="UTF-8"?>
<nodes xmlns:xsi="http://www.w3.org/2001/XMLSchema-instance" xsi:noNamespaceSchemaLocation="http://sumo.dlr.de/xsd/nodes_file.xsd">
	<node id="1_1_0" x="50.0" y="-50.0" type="priority"/>
	<node id="1_1_1" x="0.0" y="-50.0" />
	<node id="1_1_3" x="50.0" y="0.0" />
	<node id="1_1_5" x="100.0" y="-50.0" />
	<node id="1_1_7" x="50.0" y="-100.0" />
	<node id="2_1_0" x="150.0" y="-50.0" type="priority"/>
	<node id="2_1_5" x="200.0" y="-50.0" />
	<node id="2_1_7" x="150.0" y="-100.0" />
	<node id="3_1_0" x="250.0" y="-50.0" type="traffic_light"/>
	<node id="3_1_3" x="250.0" y="0.0" />
	<node id="3_1_5" x="300.0" y="-50.0" />
	<node id="3_1_7" x="250.0" y="-100.0" />
	<node id="3_1_8" x="200.0" y="-100.0" />
	<node id="2_2_0" x="150.0" y="-150.0" type="traffic_light"/>
	<node id="2_2_1" x="100.0" y="-150.0" />
	<node id="2_2_5" x="200.0" y="-150.0" />
	<node id="2_2_7" x="150.0" y="-200.0" />
	<node id="3_2_0" x="250.0" y="-150.0" type="priority"/>
	<node id="3_2_5" x="300.0" y="-150.0" />
	<node id="3_2_7" x="250.0" y="-200.0" />
<!--Generated by District-->
</nodes>
