<?xml version="1.0" encoding="UTF-8"?>
<edges xmlns:xsi="http://www.w3.org/2001/XMLSchema-instance" xsi:noNamespaceSchemaLocation="http://sumo.dlr.de/xsd/edges_file.xsd">
	<edge id="1_1_1-1_1_0" from="1_1_1" to="1_1_0" />
	<edge id="1_1_0-1_1_1" from="1_1_0" to="1_1_1" />
	<edge id="1_1_3-1_1_0" from="1_1_3" to="1_1_0" />
	<edge id="1_1_0-1_1_3" from="1_1_0" to="1_1_3" />
	<edge id="1_1_5-1_1_0" from="1_1_5" to="1_1_0" />
	<edge id="1_1_0-1_1_5" from="1_1_0" to="1_1_5" />
	<edge id="1_1_7-1_1_0" from="1_1_7" to="1_1_0" />
	<edge id="1_1_0-1_1_7" from="1_1_0" to="1_1_7" />
	<edge id="1_1_5-2_1_0" from="1_1_5" to="2_1_0" />
	<edge id="2_1_0-1_1_5" from="2_1_0" to="1_1_5" />
	<edge id="2_1_5-2_1_0" from="2_1_5" to="2_1_0" />
	<edge id="2_1_0-2_1_5" from="2_1_0" to="2_1_5" />
	<edge id="2_1_7-2_1_0" from="2_1_7" to="2_1_0" />
	<edge id="2_1_0-2_1_7" from="2_1_0" to="2_1_7" />
	<edge id="2_1_5-3_1_0" from="2_1_5" to="3_1_0" />
	<edge id="3_1_0-2_1_5" from="3_1_0" to="2_1_5" />
	<edge id="3_1_3-3_1_0" from="3_1_3" to="3_1_0" />
	<edge id="3_1_0-3_1_3" from="3_1_0" to="3_1_3" />
	<edge id="3_1_5-3_1_0" from="3_1_5" to="3_1_0" />
	<edge id="3_1_0-3_1_5" from="3_1_0" to="3_1_5" />
	<edge id="3_1_7-3_1_0" from="3_1_7" to="3_1_0" />
	<edge id="3_1_0-3_1_7" from="3_1_0" to="3_1_7" />
	<edge id="3_1_8-3_1_0" from="3_1_8" to="3_1_0" />
	<edge id="3_1_0-3_1_8" from="3_1_0" to="3_1_8" />
	<edge id="2_2_1-2_2_0" from="2_2_1" to="2_2_0" />
	<edge id="2_2_0-2_2_1" from="2_2_0" to="2_2_1" />
	<edge id="2_1_7-2_2_0" from="2_1_7" to="2_2_0" />
	<edge id="2_2_0-2_1_7" from="2_2_0" to="2_1_7" />
	<edge id="2_2_5-2_2_0" from="2_2_5" to="2_2_0" />
	<edge id="2_2_0-2_2_5" from="2_2_0" to="2_2_5" />
	<edge id="2_2_7-2_2_0" from="2_2_7" to="2_2_0" />
	<edge id="2_2_0-2_2_7" from="2_2_0" to="2_2_7" />
	<edge id="3_1_8-2_2_0" from="3_1_8" to="2_2_0" />
	<edge id="2_2_0-3_1_8" from="2_2_0" to="3_1_8" />
	<edge id="2_2_5-3_2_0" from="2_2_5" to="3_2_0" />
	<edge id="3_2_0-2_2_5" from="3_2_0" to="2_2_5" />
	<edge id="3_1_7-3_2_0" from="3_1_7" to="3_2_0" />
	<edge id="3_2_0-3_1_7" from="3_2_0" to="3_1_7" />
	<edge id="3_2_5-3_2_0" from="3_2_5" to="3_2_0" />
	<edge id="3_2_0-3_2_5" from="3_2_0" to="3_2_5" />
	<edge id="3_2_7-3_2_0" from="3_2_7" to="3_2_0" />
	<edge id="3_2_0-3_2_7" from="3_2_0" to="3_2_7" />
<!--Generated by District-->
</edges>
