<?xml version="1.0" encoding="UTF-8"?>

<!-- generated on Tue Mar 28 18:08:03 2017 by SUMO netconvert Version 0.29.0
<?xml version="1.0" encoding="UTF-8"?>

<configuration xmlns:xsi="http://www.w3.org/2001/XMLSchema-instance" xsi:noNamespaceSchemaLocation="http://sumo.dlr.de/xsd/netconvertConfiguration.xsd">

    <input>
        <node-files value="model.nod.xml"/>
        <edge-files value="model.edg.xml"/>
    </input>

    <output>
        <output-file value="model.net.xml"/>
    </output>

    <report>
        <verbose value="true"/>
    </report>

</configuration>
-->

<net version="0.27" xmlns:xsi="http://www.w3.org/2001/XMLSchema-instance" xsi:noNamespaceSchemaLocation="http://sumo.dlr.de/xsd/net_file.xsd">

    <location netOffset="0.00,200.00" convBoundary="0.00,0.00,300.00,200.00" origBoundary="0.00,-200.00,300.00,0.00" projParameter="!"/>

    <edge id=":1_1_0_0" function="internal">
        <lane id=":1_1_0_0_0" index="0" speed="13.90" length="5.00" shape="48.35,154.75 48.16,153.39 47.58,152.43 46.61,151.84 45.25,151.65"/>
    </edge>
    <edge id=":1_1_0_1" function="internal">
        <lane id=":1_1_0_1_0" index="0" speed="13.90" length="9.50" shape="48.35,154.75 48.35,145.25"/>
    </edge>
    <edge id=":1_1_0_2" function="internal">
        <lane id=":1_1_0_2_0" index="0" speed="13.90" length="5.28" shape="48.35,154.75 48.75,151.95 49.95,149.95 50.05,149.89"/>
    </edge>
    <edge id=":1_1_0_3" function="internal">
        <lane id=":1_1_0_3_0" index="0" speed="13.90" length="2.41" shape="48.35,154.75 49.18,153.51 50.00,153.10"/>
    </edge>
    <edge id=":1_1_0_16" function="internal">
        <lane id=":1_1_0_16_0" index="0" speed="13.90" length="5.04" shape="50.05,149.89 51.95,148.75 54.75,148.35"/>
    </edge>
    <edge id=":1_1_0_17" function="internal">
        <lane id=":1_1_0_17_0" index="0" speed="13.90" length="2.41" shape="50.00,153.10 50.83,153.51 51.65,154.75"/>
    </edge>
    <edge id=":1_1_0_4" function="internal">
        <lane id=":1_1_0_4_0" index="0" speed="13.90" length="5.00" shape="54.75,151.65 53.39,151.84 52.43,152.43 51.84,153.39 51.65,154.75"/>
    </edge>
    <edge id=":1_1_0_5" function="internal">
        <lane id=":1_1_0_5_0" index="0" speed="13.90" length="9.50" shape="54.75,151.65 45.25,151.65"/>
    </edge>
    <edge id=":1_1_0_6" function="internal">
        <lane id=":1_1_0_6_0" index="0" speed="13.90" length="10.32" shape="54.75,151.65 51.95,151.25 49.95,150.05 48.75,148.05 48.35,145.25"/>
    </edge>
    <edge id=":1_1_0_7" function="internal">
        <lane id=":1_1_0_7_0" index="0" speed="13.90" length="4.82" shape="54.75,151.65 53.51,150.83 53.10,150.00 53.51,149.18 54.75,148.35"/>
    </edge>
    <edge id=":1_1_0_8" function="internal">
        <lane id=":1_1_0_8_0" index="0" speed="13.90" length="5.00" shape="51.65,145.25 51.84,146.61 52.42,147.57 53.39,148.16 54.75,148.35"/>
    </edge>
    <edge id=":1_1_0_9" function="internal">
        <lane id=":1_1_0_9_0" index="0" speed="13.90" length="9.50" shape="51.65,145.25 51.65,154.75"/>
    </edge>
    <edge id=":1_1_0_10" function="internal">
        <lane id=":1_1_0_10_0" index="0" speed="13.90" length="5.28" shape="51.65,145.25 51.25,148.05 50.05,150.05 49.95,150.11"/>
    </edge>
    <edge id=":1_1_0_11" function="internal">
        <lane id=":1_1_0_11_0" index="0" speed="13.90" length="2.41" shape="51.65,145.25 50.82,146.49 50.00,146.90"/>
    </edge>
    <edge id=":1_1_0_18" function="internal">
        <lane id=":1_1_0_18_0" index="0" speed="13.90" length="5.04" shape="49.95,150.11 48.05,151.25 45.25,151.65"/>
    </edge>
    <edge id=":1_1_0_19" function="internal">
        <lane id=":1_1_0_19_0" index="0" speed="13.90" length="2.41" shape="50.00,146.90 49.17,146.49 48.35,145.25"/>
    </edge>
    <edge id=":1_1_0_12" function="internal">
        <lane id=":1_1_0_12_0" index="0" speed="13.90" length="5.00" shape="45.25,148.35 46.61,148.16 47.57,147.57 48.16,146.61 48.35,145.25"/>
    </edge>
    <edge id=":1_1_0_13" function="internal">
        <lane id=":1_1_0_13_0" index="0" speed="13.90" length="9.50" shape="45.25,148.35 54.75,148.35"/>
    </edge>
    <edge id=":1_1_0_14" function="internal">
        <lane id=":1_1_0_14_0" index="0" speed="13.90" length="10.32" shape="45.25,148.35 48.05,148.75 50.05,149.95 51.25,151.95 51.65,154.75"/>
    </edge>
    <edge id=":1_1_0_15" function="internal">
        <lane id=":1_1_0_15_0" index="0" speed="13.90" length="4.82" shape="45.25,148.35 46.49,149.17 46.90,150.00 46.49,150.82 45.25,151.65"/>
    </edge>
    <edge id=":1_1_1_0" function="internal">
        <lane id=":1_1_1_0_0" index="0" speed="13.90" length="4.82" shape="0.00,151.65 -1.24,150.83 -1.65,150.00 -1.24,149.18 0.00,148.35"/>
    </edge>
    <edge id=":1_1_3_0" function="internal">
        <lane id=":1_1_3_0_0" index="0" speed="13.90" length="4.82" shape="51.65,200.00 50.82,201.24 50.00,201.65 49.17,201.24 48.35,200.00"/>
    </edge>
    <edge id=":1_1_5_0" function="internal">
        <lane id=":1_1_5_0_0" index="0" speed="13.90" length="0.10" shape="100.00,151.65 100.00,151.65"/>
    </edge>
    <edge id=":1_1_5_1" function="internal">
        <lane id=":1_1_5_1_0" index="0" speed="13.90" length="2.41" shape="100.00,151.65 98.76,150.83 98.35,150.00"/>
    </edge>
    <edge id=":1_1_5_4" function="internal">
        <lane id=":1_1_5_4_0" index="0" speed="13.90" length="2.41" shape="98.35,150.00 98.76,149.18 100.00,148.35"/>
    </edge>
    <edge id=":1_1_5_2" function="internal">
        <lane id=":1_1_5_2_0" index="0" speed="13.90" length="0.10" shape="100.00,148.35 100.00,148.35"/>
    </edge>
    <edge id=":1_1_5_3" function="internal">
        <lane id=":1_1_5_3_0" index="0" speed="13.90" length="2.41" shape="100.00,148.35 101.24,149.17 101.65,150.00"/>
    </edge>
    <edge id=":1_1_5_5" function="internal">
        <lane id=":1_1_5_5_0" index="0" speed="13.90" length="2.41" shape="101.65,150.00 101.24,150.82 100.00,151.65"/>
    </edge>
    <edge id=":1_1_7_0" function="internal">
        <lane id=":1_1_7_0_0" index="0" speed="13.90" length="4.82" shape="48.35,100.00 49.18,98.76 50.00,98.35 50.83,98.76 51.65,100.00"/>
    </edge>
    <edge id=":2_1_0_0" function="internal">
        <lane id=":2_1_0_0_0" index="0" speed="13.90" length="9.50" shape="154.75,151.65 145.25,151.65"/>
    </edge>
    <edge id=":2_1_0_1" function="internal">
        <lane id=":2_1_0_1_0" index="0" speed="13.90" length="5.28" shape="154.75,151.65 151.95,151.25 149.95,150.05 149.89,149.95"/>
    </edge>
    <edge id=":2_1_0_2" function="internal">
        <lane id=":2_1_0_2_0" index="0" speed="13.90" length="2.41" shape="154.75,151.65 153.51,150.83 153.10,150.00"/>
    </edge>
    <edge id=":2_1_0_9" function="internal">
        <lane id=":2_1_0_9_0" index="0" speed="13.90" length="5.04" shape="149.89,149.95 148.75,148.05 148.35,145.25"/>
    </edge>
    <edge id=":2_1_0_10" function="internal">
        <lane id=":2_1_0_10_0" index="0" speed="13.90" length="2.41" shape="153.10,150.00 153.51,149.18 154.75,148.35"/>
    </edge>
    <edge id=":2_1_0_3" function="internal">
        <lane id=":2_1_0_3_0" index="0" speed="13.90" length="5.00" shape="151.65,145.25 151.84,146.61 152.43,147.57 153.39,148.16 154.75,148.35"/>
    </edge>
    <edge id=":2_1_0_4" function="internal">
        <lane id=":2_1_0_4_0" index="0" speed="13.90" length="10.32" shape="151.65,145.25 151.25,148.05 150.05,150.05 148.05,151.25 145.25,151.65"/>
    </edge>
    <edge id=":2_1_0_5" function="internal">
        <lane id=":2_1_0_5_0" index="0" speed="13.90" length="4.82" shape="151.65,145.25 150.83,146.49 150.00,146.90 149.18,146.49 148.35,145.25"/>
    </edge>
    <edge id=":2_1_0_6" function="internal">
        <lane id=":2_1_0_6_0" index="0" speed="13.90" length="5.00" shape="145.25,148.35 146.61,148.16 147.57,147.57 148.16,146.61 148.35,145.25"/>
    </edge>
    <edge id=":2_1_0_7" function="internal">
        <lane id=":2_1_0_7_0" index="0" speed="13.90" length="9.50" shape="145.25,148.35 154.75,148.35"/>
    </edge>
    <edge id=":2_1_0_8" function="internal">
        <lane id=":2_1_0_8_0" index="0" speed="13.90" length="2.41" shape="145.25,148.35 146.49,149.17 146.90,150.00"/>
    </edge>
    <edge id=":2_1_0_11" function="internal">
        <lane id=":2_1_0_11_0" index="0" speed="13.90" length="2.41" shape="146.90,150.00 146.49,150.82 145.25,151.65"/>
    </edge>
    <edge id=":2_1_5_0" function="internal">
        <lane id=":2_1_5_0_0" index="0" speed="13.90" length="0.10" shape="200.00,151.65 200.00,151.65"/>
    </edge>
    <edge id=":2_1_5_1" function="internal">
        <lane id=":2_1_5_1_0" index="0" speed="13.90" length="2.41" shape="200.00,151.65 198.76,150.83 198.35,150.00"/>
    </edge>
    <edge id=":2_1_5_4" function="internal">
        <lane id=":2_1_5_4_0" index="0" speed="13.90" length="2.41" shape="198.35,150.00 198.76,149.18 200.00,148.35"/>
    </edge>
    <edge id=":2_1_5_2" function="internal">
        <lane id=":2_1_5_2_0" index="0" speed="13.90" length="0.10" shape="200.00,148.35 200.00,148.35"/>
    </edge>
    <edge id=":2_1_5_3" function="internal">
        <lane id=":2_1_5_3_0" index="0" speed="13.90" length="2.41" shape="200.00,148.35 201.24,149.17 201.65,150.00"/>
    </edge>
    <edge id=":2_1_5_5" function="internal">
        <lane id=":2_1_5_5_0" index="0" speed="13.90" length="2.41" shape="201.65,150.00 201.24,150.82 200.00,151.65"/>
    </edge>
    <edge id=":2_1_7_0" function="internal">
        <lane id=":2_1_7_0_0" index="0" speed="13.90" length="0.10" shape="148.35,100.00 148.35,100.00"/>
    </edge>
    <edge id=":2_1_7_1" function="internal">
        <lane id=":2_1_7_1_0" index="0" speed="13.90" length="2.41" shape="148.35,100.00 149.17,98.76 150.00,98.35"/>
    </edge>
    <edge id=":2_1_7_4" function="internal">
        <lane id=":2_1_7_4_0" index="0" speed="13.90" length="2.41" shape="150.00,98.35 150.82,98.76 151.65,100.00"/>
    </edge>
    <edge id=":2_1_7_2" function="internal">
        <lane id=":2_1_7_2_0" index="0" speed="13.90" length="0.10" shape="151.65,100.00 151.65,100.00"/>
    </edge>
    <edge id=":2_1_7_3" function="internal">
        <lane id=":2_1_7_3_0" index="0" speed="13.90" length="2.41" shape="151.65,100.00 150.83,101.24 150.00,101.65"/>
    </edge>
    <edge id=":2_1_7_5" function="internal">
        <lane id=":2_1_7_5_0" index="0" speed="13.90" length="2.41" shape="150.00,101.65 149.18,101.24 148.35,100.00"/>
    </edge>
    <edge id=":2_2_0_0" function="internal">
        <lane id=":2_2_0_0_0" index="0" speed="13.90" length="9.02" shape="148.35,59.35 148.16,55.98 147.57,53.57 146.61,52.13 145.25,51.65"/>
    </edge>
    <edge id=":2_2_0_1" function="internal">
        <lane id=":2_2_0_1_0" index="0" speed="13.90" length="14.10" shape="148.35,59.35 148.35,45.25"/>
    </edge>
    <edge id=":2_2_0_2" function="internal">
        <lane id=":2_2_0_2_0" index="0" speed="13.90" length="6.83" shape="148.35,59.35 149.04,54.54 150.05,52.85"/>
    </edge>
    <edge id=":2_2_0_3" function="internal">
        <lane id=":2_2_0_3_0" index="0" speed="13.90" length="7.15" shape="148.35,59.35 148.94,54.10 150.05,52.60"/>
    </edge>
    <edge id=":2_2_0_4" function="internal">
        <lane id=":2_2_0_4_0" index="0" speed="13.90" length="2.41" shape="148.35,59.35 149.17,58.11 150.00,57.70"/>
    </edge>
    <edge id=":2_2_0_25" function="internal">
        <lane id=":2_2_0_25_0" index="0" speed="13.90" length="10.91" shape="150.05,52.85 151.10,51.10 154.54,49.04 159.35,48.35"/>
    </edge>
    <edge id=":2_2_0_26" function="internal">
        <lane id=":2_2_0_26_0" index="0" speed="13.90" length="9.36" shape="150.05,52.60 150.71,51.71 153.65,52.15 157.78,55.44"/>
    </edge>
    <edge id=":2_2_0_27" function="internal">
        <lane id=":2_2_0_27_0" index="0" speed="13.90" length="2.41" shape="150.00,57.70 150.82,58.11 151.65,59.35"/>
    </edge>
    <edge id=":2_2_0_5" function="internal">
        <lane id=":2_2_0_5_0" index="0" speed="13.90" length="6.64" shape="155.44,57.78 153.78,56.45 152.60,56.27 151.89,57.24 151.65,59.35"/>
    </edge>
    <edge id=":2_2_0_6" function="internal">
        <lane id=":2_2_0_6_0" index="0" speed="13.90" length="12.14" shape="155.44,57.78 152.51,55.10 149.83,53.18 147.41,52.03 145.25,51.65"/>
    </edge>
    <edge id=":2_2_0_7" function="internal">
        <lane id=":2_2_0_7_0" index="0" speed="13.90" length="7.88" shape="155.44,57.78 152.34,54.33 150.51,51.66"/>
    </edge>
    <edge id=":2_2_0_8" function="internal">
        <lane id=":2_2_0_8_0" index="0" speed="13.90" length="6.25" shape="155.44,57.78 152.15,53.65 152.00,52.68"/>
    </edge>
    <edge id=":2_2_0_9" function="internal">
        <lane id=":2_2_0_9_0" index="0" speed="13.90" length="2.41" shape="155.44,57.78 155.15,56.32 155.44,55.44"/>
    </edge>
    <edge id=":2_2_0_28" function="internal">
        <lane id=":2_2_0_28_0" index="0" speed="13.90" length="6.84" shape="150.51,51.66 150.12,51.10 148.79,48.07 148.35,45.25"/>
    </edge>
    <edge id=":2_2_0_29" function="internal">
        <lane id=":2_2_0_29_0" index="0" speed="13.90" length="10.25" shape="152.00,52.68 151.71,50.71 154.10,48.94 159.35,48.35"/>
    </edge>
    <edge id=":2_2_0_30" function="internal">
        <lane id=":2_2_0_30_0" index="0" speed="13.90" length="2.41" shape="155.44,55.44 156.32,55.15 157.78,55.44"/>
    </edge>
    <edge id=":2_2_0_10" function="internal">
        <lane id=":2_2_0_10_0" index="0" speed="13.90" length="6.64" shape="159.35,51.65 157.24,51.89 156.27,52.60 156.45,53.78 157.78,55.44"/>
    </edge>
    <edge id=":2_2_0_11" function="internal">
        <lane id=":2_2_0_11_0" index="0" speed="13.90" length="12.41" shape="159.35,51.65 155.98,52.13 153.57,53.57 152.13,55.98 151.65,59.35"/>
    </edge>
    <edge id=":2_2_0_12" function="internal">
        <lane id=":2_2_0_12_0" index="0" speed="13.90" length="14.10" shape="159.35,51.65 145.25,51.65"/>
    </edge>
    <edge id=":2_2_0_13" function="internal">
        <lane id=":2_2_0_13_0" index="0" speed="13.90" length="14.22" shape="159.35,51.65 154.54,51.25 151.10,50.05 149.04,48.05 148.35,45.25"/>
    </edge>
    <edge id=":2_2_0_14" function="internal">
        <lane id=":2_2_0_14_0" index="0" speed="13.90" length="2.56" shape="159.35,51.65 158.11,50.82 157.70,50.00 157.77,49.86"/>
    </edge>
    <edge id=":2_2_0_31" function="internal">
        <lane id=":2_2_0_31_0" index="0" speed="13.90" length="2.26" shape="157.77,49.86 158.11,49.17 159.35,48.35"/>
    </edge>
    <edge id=":2_2_0_15" function="internal">
        <lane id=":2_2_0_15_0" index="0" speed="13.90" length="9.02" shape="151.65,45.25 152.13,46.61 153.57,47.57 155.98,48.16 159.35,48.35"/>
    </edge>
    <edge id=":2_2_0_16" function="internal">
        <lane id=":2_2_0_16_0" index="0" speed="13.90" length="12.14" shape="151.65,45.25 152.03,47.41 153.18,49.83 155.10,52.51 157.78,55.44"/>
    </edge>
    <edge id=":2_2_0_17" function="internal">
        <lane id=":2_2_0_17_0" index="0" speed="13.90" length="14.10" shape="151.65,45.25 151.65,59.35"/>
    </edge>
    <edge id=":2_2_0_18" function="internal">
        <lane id=":2_2_0_18_0" index="0" speed="13.90" length="5.28" shape="151.65,45.25 151.25,48.05 150.05,50.05 149.95,50.11"/>
    </edge>
    <edge id=":2_2_0_19" function="internal">
        <lane id=":2_2_0_19_0" index="0" speed="13.90" length="2.41" shape="151.65,45.25 150.83,46.49 150.00,46.90"/>
    </edge>
    <edge id=":2_2_0_32" function="internal">
        <lane id=":2_2_0_32_0" index="0" speed="13.90" length="5.04" shape="149.95,50.11 148.05,51.25 145.25,51.65"/>
    </edge>
    <edge id=":2_2_0_33" function="internal">
        <lane id=":2_2_0_33_0" index="0" speed="13.90" length="2.41" shape="150.00,46.90 149.18,46.49 148.35,45.25"/>
    </edge>
    <edge id=":2_2_0_20" function="internal">
        <lane id=":2_2_0_20_0" index="0" speed="13.90" length="5.00" shape="145.25,48.35 146.61,48.16 147.57,47.58 148.16,46.61 148.35,45.25"/>
    </edge>
    <edge id=":2_2_0_21" function="internal">
        <lane id=":2_2_0_21_0" index="0" speed="13.90" length="14.10" shape="145.25,48.35 159.35,48.35"/>
    </edge>
    <edge id=":2_2_0_22" function="internal">
        <lane id=":2_2_0_22_0" index="0" speed="13.90" length="14.72" shape="145.25,48.35 148.07,48.79 151.10,50.12 154.33,52.34 157.78,55.44"/>
    </edge>
    <edge id=":2_2_0_23" function="internal">
        <lane id=":2_2_0_23_0" index="0" speed="13.90" length="6.28" shape="145.25,48.35 148.05,49.04 150.05,51.10 150.22,51.60"/>
    </edge>
    <edge id=":2_2_0_24" function="internal">
        <lane id=":2_2_0_24_0" index="0" speed="13.90" length="2.74" shape="145.25,48.35 146.49,49.18 146.90,50.00 146.75,50.29"/>
    </edge>
    <edge id=":2_2_0_34" function="internal">
        <lane id=":2_2_0_34_0" index="0" speed="13.90" length="7.94" shape="150.22,51.60 151.25,54.54 151.65,59.35"/>
    </edge>
    <edge id=":2_2_0_35" function="internal">
        <lane id=":2_2_0_35_0" index="0" speed="13.90" length="2.08" shape="146.75,50.29 146.49,50.83 145.25,51.65"/>
    </edge>
    <edge id=":2_2_1_0" function="internal">
        <lane id=":2_2_1_0_0" index="0" speed="13.90" length="4.82" shape="100.00,51.65 98.76,50.82 98.35,50.00 98.76,49.17 100.00,48.35"/>
    </edge>
    <edge id=":2_2_5_0" function="internal">
        <lane id=":2_2_5_0_0" index="0" speed="13.90" length="0.10" shape="200.00,51.65 200.00,51.65"/>
    </edge>
    <edge id=":2_2_5_1" function="internal">
        <lane id=":2_2_5_1_0" index="0" speed="13.90" length="2.41" shape="200.00,51.65 198.76,50.82 198.35,50.00"/>
    </edge>
    <edge id=":2_2_5_4" function="internal">
        <lane id=":2_2_5_4_0" index="0" speed="13.90" length="2.41" shape="198.35,50.00 198.76,49.17 200.00,48.35"/>
    </edge>
    <edge id=":2_2_5_2" function="internal">
        <lane id=":2_2_5_2_0" index="0" speed="13.90" length="0.10" shape="200.00,48.35 200.00,48.35"/>
    </edge>
    <edge id=":2_2_5_3" function="internal">
        <lane id=":2_2_5_3_0" index="0" speed="13.90" length="2.41" shape="200.00,48.35 201.24,49.18 201.65,50.00"/>
    </edge>
    <edge id=":2_2_5_5" function="internal">
        <lane id=":2_2_5_5_0" index="0" speed="13.90" length="2.41" shape="201.65,50.00 201.24,50.83 200.00,51.65"/>
    </edge>
    <edge id=":2_2_7_0" function="internal">
        <lane id=":2_2_7_0_0" index="0" speed="13.90" length="4.82" shape="148.35,0.00 149.17,-1.24 150.00,-1.65 150.82,-1.24 151.65,0.00"/>
    </edge>
    <edge id=":3_1_0_0" function="internal">
        <lane id=":3_1_0_0_0" index="0" speed="13.90" length="9.02" shape="248.35,154.75 247.87,153.39 246.43,152.43 244.02,151.84 240.65,151.65"/>
    </edge>
    <edge id=":3_1_0_1" function="internal">
        <lane id=":3_1_0_1_0" index="0" speed="13.90" length="12.14" shape="248.35,154.75 247.97,152.59 246.82,150.17 244.90,147.49 242.22,144.56"/>
    </edge>
    <edge id=":3_1_0_2" function="internal">
        <lane id=":3_1_0_2_0" index="0" speed="13.90" length="14.10" shape="248.35,154.75 248.35,140.65"/>
    </edge>
    <edge id=":3_1_0_3" function="internal">
        <lane id=":3_1_0_3_0" index="0" speed="13.90" length="5.28" shape="248.35,154.75 248.75,151.95 249.95,149.95 250.05,149.89"/>
    </edge>
    <edge id=":3_1_0_4" function="internal">
        <lane id=":3_1_0_4_0" index="0" speed="13.90" length="2.41" shape="248.35,154.75 249.18,153.51 250.00,153.10"/>
    </edge>
    <edge id=":3_1_0_25" function="internal">
        <lane id=":3_1_0_25_0" index="0" speed="13.90" length="5.04" shape="250.05,149.89 251.95,148.75 254.75,148.35"/>
    </edge>
    <edge id=":3_1_0_26" function="internal">
        <lane id=":3_1_0_26_0" index="0" speed="13.90" length="2.41" shape="250.00,153.10 250.82,153.51 251.65,154.75"/>
    </edge>
    <edge id=":3_1_0_5" function="internal">
        <lane id=":3_1_0_5_0" index="0" speed="13.90" length="5.00" shape="254.75,151.65 253.39,151.84 252.42,152.43 251.84,153.39 251.65,154.75"/>
    </edge>
    <edge id=":3_1_0_6" function="internal">
        <lane id=":3_1_0_6_0" index="0" speed="13.90" length="14.10" shape="254.75,151.65 240.65,151.65"/>
    </edge>
    <edge id=":3_1_0_7" function="internal">
        <lane id=":3_1_0_7_0" index="0" speed="13.90" length="6.07" shape="254.75,151.65 251.18,151.04 248.99,149.95"/>
    </edge>
    <edge id=":3_1_0_8" function="internal">
        <lane id=":3_1_0_8_0" index="0" speed="13.90" length="4.29" shape="254.75,151.65 251.95,150.96 250.97,149.95"/>
    </edge>
    <edge id=":3_1_0_9" function="internal">
        <lane id=":3_1_0_9_0" index="0" speed="13.90" length="2.41" shape="254.75,151.65 253.51,150.83 253.10,150.00"/>
    </edge>
    <edge id=":3_1_0_27" function="internal">
        <lane id=":3_1_0_27_0" index="0" speed="13.90" length="8.69" shape="248.99,149.95 247.94,149.43 244.97,147.16 242.22,144.56"/>
    </edge>
    <edge id=":3_1_0_28" function="internal">
        <lane id=":3_1_0_28_0" index="0" speed="13.90" length="9.93" shape="250.97,149.95 249.95,148.90 248.75,145.46 248.35,140.65"/>
    </edge>
    <edge id=":3_1_0_29" function="internal">
        <lane id=":3_1_0_29_0" index="0" speed="13.90" length="2.41" shape="253.10,150.00 253.51,149.18 254.75,148.35"/>
    </edge>
    <edge id=":3_1_0_10" function="internal">
        <lane id=":3_1_0_10_0" index="0" speed="13.90" length="9.02" shape="251.65,140.65 251.84,144.02 252.43,146.43 253.39,147.87 254.75,148.35"/>
    </edge>
    <edge id=":3_1_0_11" function="internal">
        <lane id=":3_1_0_11_0" index="0" speed="13.90" length="14.10" shape="251.65,140.65 251.65,154.75"/>
    </edge>
    <edge id=":3_1_0_12" function="internal">
        <lane id=":3_1_0_12_0" index="0" speed="13.90" length="6.83" shape="251.65,140.65 250.96,145.46 249.95,147.15"/>
    </edge>
    <edge id=":3_1_0_13" function="internal">
        <lane id=":3_1_0_13_0" index="0" speed="13.90" length="7.15" shape="251.65,140.65 251.06,145.90 249.95,147.40"/>
    </edge>
    <edge id=":3_1_0_14" function="internal">
        <lane id=":3_1_0_14_0" index="0" speed="13.90" length="2.41" shape="251.65,140.65 250.82,141.89 250.00,142.30"/>
    </edge>
    <edge id=":3_1_0_30" function="internal">
        <lane id=":3_1_0_30_0" index="0" speed="13.90" length="10.91" shape="249.95,147.15 248.90,148.90 245.46,150.96 240.65,151.65"/>
    </edge>
    <edge id=":3_1_0_31" function="internal">
        <lane id=":3_1_0_31_0" index="0" speed="13.90" length="9.36" shape="249.95,147.40 249.29,148.29 246.35,147.85 242.22,144.56"/>
    </edge>
    <edge id=":3_1_0_32" function="internal">
        <lane id=":3_1_0_32_0" index="0" speed="13.90" length="2.41" shape="250.00,142.30 249.18,141.89 248.35,140.65"/>
    </edge>
    <edge id=":3_1_0_15" function="internal">
        <lane id=":3_1_0_15_0" index="0" speed="13.90" length="6.64" shape="244.56,142.22 246.22,143.55 247.40,143.73 248.11,142.76 248.35,140.65"/>
    </edge>
    <edge id=":3_1_0_16" function="internal">
        <lane id=":3_1_0_16_0" index="0" speed="13.90" length="12.14" shape="244.56,142.22 247.49,144.90 250.17,146.82 252.59,147.97 254.75,148.35"/>
    </edge>
    <edge id=":3_1_0_17" function="internal">
        <lane id=":3_1_0_17_0" index="0" speed="13.90" length="14.76" shape="244.56,142.22 247.16,144.97 249.43,147.94 251.04,151.18 251.65,154.75"/>
    </edge>
    <edge id=":3_1_0_18" function="internal">
        <lane id=":3_1_0_18_0" index="0" speed="13.90" length="16.51" shape="244.56,142.22 247.85,146.35 248.29,149.29 245.90,151.06 240.65,151.65"/>
    </edge>
    <edge id=":3_1_0_19" function="internal">
        <lane id=":3_1_0_19_0" index="0" speed="13.90" length="2.65" shape="244.56,142.22 244.85,143.68 244.56,144.56 244.33,144.63"/>
    </edge>
    <edge id=":3_1_0_33" function="internal">
        <lane id=":3_1_0_33_0" index="0" speed="13.90" length="2.17" shape="244.33,144.63 243.68,144.85 242.22,144.56"/>
    </edge>
    <edge id=":3_1_0_20" function="internal">
        <lane id=":3_1_0_20_0" index="0" speed="13.90" length="6.64" shape="240.65,148.35 242.76,148.11 243.73,147.40 243.55,146.22 242.22,144.56"/>
    </edge>
    <edge id=":3_1_0_21" function="internal">
        <lane id=":3_1_0_21_0" index="0" speed="13.90" length="12.41" shape="240.65,148.35 244.02,147.87 246.43,146.43 247.87,144.02 248.35,140.65"/>
    </edge>
    <edge id=":3_1_0_22" function="internal">
        <lane id=":3_1_0_22_0" index="0" speed="13.90" length="14.10" shape="240.65,148.35 254.75,148.35"/>
    </edge>
    <edge id=":3_1_0_23" function="internal">
        <lane id=":3_1_0_23_0" index="0" speed="13.90" length="8.61" shape="240.65,148.35 245.46,148.75 248.90,149.95 249.00,150.05"/>
    </edge>
    <edge id=":3_1_0_24" function="internal">
        <lane id=":3_1_0_24_0" index="0" speed="13.90" length="2.41" shape="240.65,148.35 241.89,149.17 242.30,150.00"/>
    </edge>
    <edge id=":3_1_0_34" function="internal">
        <lane id=":3_1_0_34_0" index="0" speed="13.90" length="5.61" shape="249.00,150.05 250.96,151.95 251.65,154.75"/>
    </edge>
    <edge id=":3_1_0_35" function="internal">
        <lane id=":3_1_0_35_0" index="0" speed="13.90" length="2.41" shape="242.30,150.00 241.89,150.82 240.65,151.65"/>
    </edge>
    <edge id=":3_1_3_0" function="internal">
        <lane id=":3_1_3_0_0" index="0" speed="13.90" length="4.82" shape="251.65,200.00 250.82,201.24 250.00,201.65 249.18,201.24 248.35,200.00"/>
    </edge>
    <edge id=":3_1_5_0" function="internal">
        <lane id=":3_1_5_0_0" index="0" speed="13.90" length="4.82" shape="300.00,148.35 301.24,149.17 301.65,150.00 301.24,150.82 300.00,151.65"/>
    </edge>
    <edge id=":3_1_7_0" function="internal">
        <lane id=":3_1_7_0_0" index="0" speed="13.90" length="0.10" shape="248.35,100.00 248.35,100.00"/>
    </edge>
    <edge id=":3_1_7_1" function="internal">
        <lane id=":3_1_7_1_0" index="0" speed="13.90" length="2.41" shape="248.35,100.00 249.18,98.76 250.00,98.35"/>
    </edge>
    <edge id=":3_1_7_4" function="internal">
        <lane id=":3_1_7_4_0" index="0" speed="13.90" length="2.41" shape="250.00,98.35 250.82,98.76 251.65,100.00"/>
    </edge>
    <edge id=":3_1_7_2" function="internal">
        <lane id=":3_1_7_2_0" index="0" speed="13.90" length="0.10" shape="251.65,100.00 251.65,100.00"/>
    </edge>
    <edge id=":3_1_7_3" function="internal">
        <lane id=":3_1_7_3_0" index="0" speed="13.90" length="2.41" shape="251.65,100.00 250.82,101.24 250.00,101.65"/>
    </edge>
    <edge id=":3_1_7_5" function="internal">
        <lane id=":3_1_7_5_0" index="0" speed="13.90" length="2.41" shape="250.00,101.65 249.18,101.24 248.35,100.00"/>
    </edge>
    <edge id=":3_1_8_0" function="internal">
        <lane id=":3_1_8_0_0" index="0" speed="13.90" length="0.10" shape="198.83,101.17 198.83,101.17"/>
    </edge>
    <edge id=":3_1_8_1" function="internal">
        <lane id=":3_1_8_1_0" index="0" speed="13.90" length="2.41" shape="198.83,101.17 198.54,99.71 198.83,98.83"/>
    </edge>
    <edge id=":3_1_8_4" function="internal">
        <lane id=":3_1_8_4_0" index="0" speed="13.90" length="2.41" shape="198.83,98.83 199.71,98.54 201.17,98.83"/>
    </edge>
    <edge id=":3_1_8_2" function="internal">
        <lane id=":3_1_8_2_0" index="0" speed="13.90" length="0.10" shape="201.17,98.83 201.17,98.83"/>
    </edge>
    <edge id=":3_1_8_3" function="internal">
        <lane id=":3_1_8_3_0" index="0" speed="13.90" length="2.41" shape="201.17,98.83 201.46,100.29 201.17,101.17"/>
    </edge>
    <edge id=":3_1_8_5" function="internal">
        <lane id=":3_1_8_5_0" index="0" speed="13.90" length="2.41" shape="201.17,101.17 200.29,101.46 198.83,101.17"/>
    </edge>
    <edge id=":3_2_0_0" function="internal">
        <lane id=":3_2_0_0_0" index="0" speed="13.90" length="5.00" shape="248.35,54.75 248.16,53.39 247.57,52.43 246.61,51.84 245.25,51.65"/>
    </edge>
    <edge id=":3_2_0_1" function="internal">
        <lane id=":3_2_0_1_0" index="0" speed="13.90" length="9.50" shape="248.35,54.75 248.35,45.25"/>
    </edge>
    <edge id=":3_2_0_2" function="internal">
        <lane id=":3_2_0_2_0" index="0" speed="13.90" length="5.28" shape="248.35,54.75 248.75,51.95 249.95,49.95 250.05,49.89"/>
    </edge>
    <edge id=":3_2_0_3" function="internal">
        <lane id=":3_2_0_3_0" index="0" speed="13.90" length="2.41" shape="248.35,54.75 249.18,53.51 250.00,53.10"/>
    </edge>
    <edge id=":3_2_0_16" function="internal">
        <lane id=":3_2_0_16_0" index="0" speed="13.90" length="5.04" shape="250.05,49.89 251.95,48.75 254.75,48.35"/>
    </edge>
    <edge id=":3_2_0_17" function="internal">
        <lane id=":3_2_0_17_0" index="0" speed="13.90" length="2.41" shape="250.00,53.10 250.82,53.51 251.65,54.75"/>
    </edge>
    <edge id=":3_2_0_4" function="internal">
        <lane id=":3_2_0_4_0" index="0" speed="13.90" length="5.00" shape="254.75,51.65 253.39,51.84 252.42,52.42 251.84,53.39 251.65,54.75"/>
    </edge>
    <edge id=":3_2_0_5" function="internal">
        <lane id=":3_2_0_5_0" index="0" speed="13.90" length="9.50" shape="254.75,51.65 245.25,51.65"/>
    </edge>
    <edge id=":3_2_0_6" function="internal">
        <lane id=":3_2_0_6_0" index="0" speed="13.90" length="10.32" shape="254.75,51.65 251.95,51.25 249.95,50.05 248.75,48.05 248.35,45.25"/>
    </edge>
    <edge id=":3_2_0_7" function="internal">
        <lane id=":3_2_0_7_0" index="0" speed="13.90" length="4.82" shape="254.75,51.65 253.51,50.82 253.10,50.00 253.51,49.17 254.75,48.35"/>
    </edge>
    <edge id=":3_2_0_8" function="internal">
        <lane id=":3_2_0_8_0" index="0" speed="13.90" length="5.00" shape="251.65,45.25 251.84,46.61 252.43,47.57 253.39,48.16 254.75,48.35"/>
    </edge>
    <edge id=":3_2_0_9" function="internal">
        <lane id=":3_2_0_9_0" index="0" speed="13.90" length="9.50" shape="251.65,45.25 251.65,54.75"/>
    </edge>
    <edge id=":3_2_0_10" function="internal">