<?xml version="1.0" encoding="UTF-8"?>

<!-- generated on Mon Sep 18 16:20:42 2017 by SUMO netconvert Version 0.30.0
<?xml version="1.0" encoding="UTF-8"?>

<configuration xmlns:xsi="http://www.w3.org/2001/XMLSchema-instance" xsi:noNamespaceSchemaLocation="http://sumo.dlr.de/xsd/netconvertConfiguration.xsd">

    <input>
        <node-files value="model.nod.xml"/>
        <edge-files value="model.edg.xml"/>
        <connection-files value="model.con.xml"/>
        <type-files value="model.typ.xml"/>
    </input>

    <output>
        <output-file value="model.net.xml"/>
    </output>

    <processing>
        <no-turnarounds value="true"/>
    </processing>

    <report>
        <verbose value="true"/>
    </report>

</configuration>
-->

<net version="0.27" xmlns:xsi="http://www.w3.org/2001/XMLSchema-instance" xsi:noNamespaceSchemaLocation="http://sumo.dlr.de/xsd/net_file.xsd">

    <location netOffset="0.00,200.00" convBoundary="0.00,0.00,300.00,200.00" origBoundary="0.00,-200.00,300.00,0.00" projParameter="!"/>

    <type id="district.1.30" priority="10" numLanes="1" speed="13.40"/>
    <type id="district.1.40" priority="10" numLanes="1" speed="17.90"/>
    <type id="district.2.30" priority="10" numLanes="2" speed="13.40"/>
    <type id="district.2.40" priority="10" numLanes="2" speed="17.90"/>
    <type id="district.3.30" priority="10" numLanes="3" speed="13.40"/>
    <type id="district.3.40" priority="10" numLanes="3" speed="17.90"/>
    <type id="district.default" priority="10" numLanes="1" speed="13.40"/>

    <edge id=":1_1_0_0" function="internal">
        <lane id=":1_1_0_0_0" index="0" speed="13.40" length="5.00" shape="48.35,154.75 48.16,153.39 47.58,152.43 46.61,151.84 45.25,151.65"/>
    </edge>
    <edge id=":1_1_0_1" function="internal">
        <lane id=":1_1_0_1_0" index="0" speed="13.40" length="9.50" shape="48.35,154.75 48.35,145.25"/>
    </edge>
    <edge id=":1_1_0_2" function="internal">
        <lane id=":1_1_0_2_0" index="0" speed="13.40" length="5.28" shape="48.35,154.75 48.75,151.95 49.95,149.95 50.05,149.89"/>
    </edge>
    <edge id=":1_1_0_12" function="internal">
        <lane id=":1_1_0_12_0" index="0" speed="13.40" length="5.04" shape="50.05,149.89 51.95,148.75 54.75,148.35"/>
    </edge>
    <edge id=":1_1_0_3" function="internal">
        <lane id=":1_1_0_3_0" index="0" speed="13.40" length="5.00" shape="54.75,151.65 53.39,151.84 52.43,152.43 51.84,153.39 51.65,154.75"/>
    </edge>
    <edge id=":1_1_0_4" function="internal">
        <lane id=":1_1_0_4_0" index="0" speed="13.40" length="9.50" shape="54.75,151.65 45.25,151.65"/>
    </edge>
    <edge id=":1_1_0_5" function="internal">
        <lane id=":1_1_0_5_0" index="0" speed="13.40" length="10.32" shape="54.75,151.65 51.95,151.25 49.95,150.05 48.75,148.05 48.35,145.25"/>
    </edge>
    <edge id=":1_1_0_6" function="internal">
        <lane id=":1_1_0_6_0" index="0" speed="13.40" length="5.00" shape="51.65,145.25 51.84,146.61 52.42,147.57 53.39,148.16 54.75,148.35"/>
    </edge>
    <edge id=":1_1_0_7" function="internal">
        <lane id=":1_1_0_7_0" index="0" speed="13.40" length="9.50" shape="51.65,145.25 51.65,154.75"/>
    </edge>
    <edge id=":1_1_0_8" function="internal">
        <lane id=":1_1_0_8_0" index="0" speed="13.40" length="5.28" shape="51.65,145.25 51.25,148.05 50.05,150.05 49.95,150.11"/>
    </edge>
    <edge id=":1_1_0_13" function="internal">
        <lane id=":1_1_0_13_0" index="0" speed="13.40" length="5.04" shape="49.95,150.11 48.05,151.25 45.25,151.65"/>
    </edge>
    <edge id=":1_1_0_9" function="internal">
        <lane id=":1_1_0_9_0" index="0" speed="13.40" length="5.00" shape="45.25,148.35 46.61,148.16 47.57,147.57 48.16,146.61 48.35,145.25"/>
    </edge>
    <edge id=":1_1_0_10" function="internal">
        <lane id=":1_1_0_10_0" index="0" speed="13.40" length="9.50" shape="45.25,148.35 54.75,148.35"/>
    </edge>
    <edge id=":1_1_0_11" function="internal">
        <lane id=":1_1_0_11_0" index="0" speed="13.40" length="10.32" shape="45.25,148.35 48.05,148.75 50.05,149.95 51.25,151.95 51.65,154.75"/>
    </edge>
    <edge id=":1_1_5_0" function="internal">
        <lane id=":1_1_5_0_0" index="0" speed="13.40" length="0.10" shape="100.00,151.65 100.00,151.65"/>
    </edge>
    <edge id=":1_1_5_1" function="internal">
        <lane id=":1_1_5_1_0" index="0" speed="13.40" length="0.10" shape="100.00,148.35 100.00,148.35"/>
    </edge>
    <edge id=":2_1_0_0" function="internal">
        <lane id=":2_1_0_0_0" index="0" speed="13.40" length="9.50" shape="154.75,151.65 145.25,151.65"/>
    </edge>
    <edge id=":2_1_0_1" function="internal">
        <lane id=":2_1_0_1_0" index="0" speed="13.40" length="5.28" shape="154.75,151.65 151.95,151.25 149.95,150.05 149.89,149.95"/>
    </edge>
    <edge id=":2_1_0_6" function="internal">
        <lane id=":2_1_0_6_0" index="0" speed="13.40" length="5.04" shape="149.89,149.95 148.75,148.05 148.35,145.25"/>
    </edge>
    <edge id=":2_1_0_2" function="internal">
        <lane id=":2_1_0_2_0" index="0" speed="13.40" length="5.00" shape="151.65,145.25 151.84,146.61 152.43,147.57 153.39,148.16 154.75,148.35"/>
    </edge>
    <edge id=":2_1_0_3" function="internal">
        <lane id=":2_1_0_3_0" index="0" speed="13.40" length="10.32" shape="151.65,145.25 151.25,148.05 150.05,150.05 148.05,151.25 145.25,151.65"/>
    </edge>
    <edge id=":2_1_0_4" function="internal">
        <lane id=":2_1_0_4_0" index="0" speed="13.40" length="5.00" shape="145.25,148.35 146.61,148.16 147.57,147.57 148.16,146.61 148.35,145.25"/>
    </edge>
    <edge id=":2_1_0_5" function="internal">
        <lane id=":2_1_0_5_0" index="0" speed="13.40" length="9.50" shape="145.25,148.35 154.75,148.35"/>
    </edge>
    <edge id=":2_1_5_0" function="internal">
        <lane id=":2_1_5_0_0" index="0" speed="13.40" length="0.10" shape="200.00,151.65 200.00,151.65"/>
    </edge>
    <edge id=":2_1_5_1" function="internal">
        <lane id=":2_1_5_1_0" index="0" speed="13.40" length="0.10" shape="200.00,148.35 200.00,148.35"/>
    </edge>
    <edge id=":2_1_7_0" function="internal">
        <lane id=":2_1_7_0_0" index="0" speed="13.40" length="0.10" shape="148.35,100.00 148.35,100.00"/>
    </edge>
    <edge id=":2_1_7_1" function="internal">
        <lane id=":2_1_7_1_0" index="0" speed="13.40" length="0.10" shape="151.65,100.00 151.65,100.00"/>
    </edge>
    <edge id=":2_2_0_0" function="internal">
        <lane id=":2_2_0_0_0" index="0" speed="13.40" length="9.02" shape="148.35,59.35 148.16,55.98 147.57,53.57 146.61,52.13 145.25,51.65"/>
    </edge>
    <edge id=":2_2_0_1" function="internal">
        <lane id=":2_2_0_1_0" index="0" speed="13.40" length="14.10" shape="148.35,59.35 148.35,45.25"/>
    </edge>
    <edge id=":2_2_0_2" function="internal">
        <lane id=":2_2_0_2_0" index="0" speed="13.40" length="6.83" shape="148.35,59.35 149.04,54.54 150.05,52.85"/>
    </edge>
    <edge id=":2_2_0_3" function="internal">
        <lane id=":2_2_0_3_0" index="0" speed="13.40" length="7.15" shape="148.35,59.35 148.94,54.10 150.05,52.60"/>
    </edge>
    <edge id=":2_2_0_20" function="internal">
        <lane id=":2_2_0_20_0" index="0" speed="13.40" length="10.91" shape="150.05,52.85 151.10,51.10 154.54,49.04 159.35,48.35"/>
    </edge>
    <edge id=":2_2_0_21" function="internal">
        <lane id=":2_2_0_21_0" index="0" speed="13.40" length="9.36" shape="150.05,52.60 150.71,51.71 153.65,52.15 157.78,55.44"/>
    </edge>
    <edge id=":2_2_0_4" function="internal">
        <lane id=":2_2_0_4_0" index="0" speed="13.40" length="6.64" shape="155.44,57.78 153.78,56.45 152.60,56.27 151.89,57.24 151.65,59.35"/>
    </edge>
    <edge id=":2_2_0_5" function="internal">
        <lane id=":2_2_0_5_0" index="0" speed="13.40" length="12.14" shape="155.44,57.78 152.51,55.10 149.83,53.18 147.41,52.03 145.25,51.65"/>
    </edge>
    <edge id=":2_2_0_6" function="internal">
        <lane id=":2_2_0_6_0" index="0" speed="13.40" length="8.01" shape="155.44,57.78 152.34,54.33 150.43,51.55"/>
    </edge>
    <edge id=":2_2_0_7" function="internal">
        <lane id=":2_2_0_7_0" index="0" speed="13.40" length="6.42" shape="155.44,57.78 152.15,53.65 151.98,52.52"/>
    </edge>
    <edge id=":2_2_0_22" function="internal">
        <lane id=":2_2_0_22_0" index="0" speed="13.40" length="6.71" shape="150.43,51.55 150.12,51.10 148.79,48.07 148.35,45.25"/>
    </edge>
    <edge id=":2_2_0_23" function="internal">
        <lane id=":2_2_0_23_0" index="0" speed="13.40" length="10.09" shape="151.98,52.52 151.71,50.71 154.10,48.94 159.35,48.35"/>
    </edge>
    <edge id=":2_2_0_8" function="internal">
        <lane id=":2_2_0_8_0" index="0" speed="13.40" length="6.64" shape="159.35,51.65 157.24,51.89 156.27,52.60 156.45,53.78 157.78,55.44"/>
    </edge>
    <edge id=":2_2_0_9" function="internal">
        <lane id=":2_2_0_9_0" index="0" speed="13.40" length="12.41" shape="159.35,51.65 155.98,52.13 153.57,53.57 152.13,55.98 151.65,59.35"/>
    </edge>
    <edge id=":2_2_0_10" function="internal">
        <lane id=":2_2_0_10_0" index="0" speed="13.40" length="14.10" shape="159.35,51.65 145.25,51.65"/>
    </edge>
    <edge id=":2_2_0_11" function="internal">
        <lane id=":2_2_0_11_0" index="0" speed="13.40" length="14.22" shape="159.35,51.65 154.54,51.25 151.10,50.05 149.04,48.05 148.35,45.25"/>
    </edge>
    <edge id=":2_2_0_12" function="internal">
        <lane id=":2_2_0_12_0" index="0" speed="13.40" length="9.02" shape="151.65,45.25 152.13,46.61 153.57,47.57 155.98,48.16 159.35,48.35"/>
    </edge>
    <edge id=":2_2_0_13" function="internal">
        <lane id=":2_2_0_13_0" index="0" speed="13.40" length="12.14" shape="151.65,45.25 152.03,47.41 153.18,49.83 155.10,52.51 157.78,55.44"/>
    </edge>
    <edge id=":2_2_0_14" function="internal">
        <lane id=":2_2_0_14_0" index="0" speed="13.40" length="14.10" shape="151.65,45.25 151.65,59.35"/>
    </edge>
    <edge id=":2_2_0_15" function="internal">
        <lane id=":2_2_0_15_0" index="0" speed="13.40" length="5.28" shape="151.65,45.25 151.25,48.05 150.05,50.05 149.95,50.11"/>
    </edge>
    <edge id=":2_2_0_24" function="internal">
        <lane id=":2_2_0_24_0" index="0" speed="13.40" length="5.04" shape="149.95,50.11 148.05,51.25 145.25,51.65"/>
    </edge>
    <edge id=":2_2_0_16" function="internal">
        <lane id=":2_2_0_16_0" index="0" speed="13.40" length="5.00" shape="145.25,48.35 146.61,48.16 147.57,47.58 148.16,46.61 148.35,45.25"/>
    </edge>
    <edge id=":2_2_0_17" function="internal">
        <lane id=":2_2_0_17_0" index="0" speed="13.40" length="14.10" shape="145.25,48.35 159.35,48.35"/>
    </edge>
    <edge id=":2_2_0_18" function="internal">
        <lane id=":2_2_0_18_0" index="0" speed="13.40" length="14.76" shape="145.25,48.35 148.82,48.96 152.06,50.57 155.03,52.84 157.78,55.44"/>
    </edge>
    <edge id=":2_2_0_19" function="internal">
        <lane id=":2_2_0_19_0" index="0" speed="13.40" length="6.28" shape="145.25,48.35 148.05,49.04 150.05,51.10 150.22,51.60"/>
    </edge>
    <edge id=":2_2_0_25" function="internal">
        <lane id=":2_2_0_25_0" index="0" speed="13.40" length="7.94" shape="150.22,51.60 151.25,54.54 151.65,59.35"/>
    </edge>
    <edge id=":2_2_5_0" function="internal">
        <lane id=":2_2_5_0_0" index="0" speed="13.40" length="0.10" shape="200.00,51.65 200.00,51.65"/>
    </edge>
    <edge id=":2_2_5_1" function="internal">
        <lane id=":2_2_5_1_0" index="0" speed="13.40" length="0.10" shape="200.00,48.35 200.00,48.35"/>
    </edge>
    <edge id=":3_1_0_0" function="internal">
        <lane id=":3_1_0_0_0" index="0" speed="13.40" length="9.02" shape="248.35,154.75 247.87,153.39 246.43,152.43 244.02,151.84 240.65,151.65"/>
    </edge>
    <edge id=":3_1_0_1" function="internal">
        <lane id=":3_1_0_1_0" index="0" speed="13.40" length="12.14" shape="248.35,154.75 247.97,152.59 246.82,150.17 244.90,147.49 242.22,144.56"/>
    </edge>
    <edge id=":3_1_0_2" function="internal">
        <lane id=":3_1_0_2_0" index="0" speed="13.40" length="14.10" shape="248.35,154.75 248.35,140.65"/>
    </edge>
    <edge id=":3_1_0_3" function="internal">
        <lane id=":3_1_0_3_0" index="0" speed="13.40" length="5.28" shape="248.35,154.75 248.75,151.95 249.95,149.95 250.05,149.89"/>
    </edge>
    <edge id=":3_1_0_20" function="internal">
        <lane id=":3_1_0_20_0" index="0" speed="13.40" length="5.04" shape="250.05,149.89 251.95,148.75 254.75,148.35"/>
    </edge>
    <edge id=":3_1_0_4" function="internal">
        <lane id=":3_1_0_4_0" index="0" speed="13.40" length="5.00" shape="254.75,151.65 253.39,151.84 252.42,152.43 251.84,153.39 251.65,154.75"/>
    </edge>
    <edge id=":3_1_0_5" function="internal">
        <lane id=":3_1_0_5_0" index="0" speed="13.40" length="14.10" shape="254.75,151.65 240.65,151.65"/>
    </edge>
    <edge id=":3_1_0_6" function="internal">
        <lane id=":3_1_0_6_0" index="0" speed="13.40" length="6.07" shape="254.75,151.65 251.18,151.04 248.99,149.95"/>
    </edge>
    <edge id=":3_1_0_7" function="internal">
        <lane id=":3_1_0_7_0" index="0" speed="13.40" length="4.29" shape="254.75,151.65 251.95,150.96 250.97,149.95"/>
    </edge>
    <edge id=":3_1_0_21" function="internal">
        <lane id=":3_1_0_21_0" index="0" speed="13.40" length="8.69" shape="248.99,149.95 247.94,149.43 244.97,147.16 242.22,144.56"/>
    </edge>
    <edge id=":3_1_0_22" function="internal">
        <lane id=":3_1_0_22_0" index="0" speed="13.40" length="9.93" shape="250.97,149.95 249.95,148.90 248.75,145.46 248.35,140.65"/>
    </edge>
    <edge id=":3_1_0_8" function="internal">
        <lane id=":3_1_0_8_0" index="0" speed="13.40" length="9.02" shape="251.65,140.65 251.84,144.02 252.43,146.43 253.39,147.87 254.75,148.35"/>
    </edge>
    <edge id=":3_1_0_9" function="internal">
        <lane id=":3_1_0_9_0" index="0" speed="13.40" length="14.10" shape="251.65,140.65 251.65,154.75"/>
    </edge>
    <edge id=":3_1_0_10" function="internal">
        <lane id=":3_1_0_10_0" index="0" speed="13.40" length="6.83" shape="251.65,140.65 250.96,145.46 249.95,147.15"/>
    </edge>
    <edge id=":3_1_0_11" function="internal">
        <lane id=":3_1_0_11_0" index="0" speed="13.40" length="7.15" shape="251.65,140.65 251.06,145.90 249.95,147.40"/>
    </edge>
    <edge id=":3_1_0_23" function="internal">
        <lane id=":3_1_0_23_0" index="0" speed="13.40" length="10.91" shape="249.95,147.15 248.90,148.90 245.46,150.96 240.65,151.65"/>
    </edge>
    <edge id=":3_1_0_24" function="internal">
        <lane id=":3_1_0_24_0" index="0" speed="13.40" length="9.36" shape="249.95,147.40 249.29,148.29 246.35,147.85 242.22,144.56"/>
    </edge>
    <edge id=":3_1_0_12" function="internal">
        <lane id=":3_1_0_12_0" index="0" speed="13.40" length="6.64" shape="244.56,142.22 246.22,143.55 247.40,143.73 248.11,142.76 248.35,140.65"/>
    </edge>
    <edge id=":3_1_0_13" function="internal">
        <lane id=":3_1_0_13_0" index="0" speed="13.40" length="12.14" shape="244.56,142.22 247.49,144.90 250.17,146.82 252.59,147.97 254.75,148.35"/>
    </edge>
    <edge id=":3_1_0_14" function="internal">
        <lane id=":3_1_0_14_0" index="0" speed="13.40" length="14.76" shape="244.56,142.22 247.16,144.97 249.43,147.94 251.04,151.18 251.65,154.75"/>
    </edge>
    <edge id=":3_1_0_15" function="internal">
        <lane id=":3_1_0_15_0" index="0" speed="13.40" length="16.51" shape="244.56,142.22 247.85,146.35 248.29,149.29 245.90,151.06 240.65,151.65"/>
    </edge>
    <edge id=":3_1_0_16" function="internal">
        <lane id=":3_1_0_16_0" index="0" speed="13.40" length="6.64" shape="240.65,148.35 242.76,148.11 243.73,147.40 243.55,146.22 242.22,144.56"/>
    </edge>
    <edge id=":3_1_0_17" function="internal">
        <lane id=":3_1_0_17_0" index="0" speed="13.40" length="12.41" shape="240.65,148.35 244.02,147.87 246.43,146.43 247.87,144.02 248.35,140.65"/>
    </edge>
    <edge id=":3_1_0_18" function="internal">
        <lane id=":3_1_0_18_0" index="0" speed="13.40" length="14.10" shape="240.65,148.35 254.75,148.35"/>
    </edge>
    <edge id=":3_1_0_19" function="internal">
        <lane id=":3_1_0_19_0" index="0" speed="13.40" length="8.61" shape="240.65,148.35 245.46,148.75 248.90,149.95 249.00,150.05"/>
    </edge>
    <edge id=":3_1_0_25" function="internal">
        <lane id=":3_1_0_25_0" index="0" speed="13.40" length="5.61" shape="249.00,150.05 250.96,151.95 251.65,154.75"/>
    </edge>
    <edge id=":3_1_7_0" function="internal">
        <lane id=":3_1_7_0_0" index="0" speed="13.40" length="0.10" shape="248.35,100.00 248.35,100.00"/>
    </edge>
    <edge id=":3_1_7_1" function="internal">
        <lane id=":3_1_7_1_0" index="0" speed="13.40" length="0.10" shape="251.65,100.00 251.65,100.00"/>
    </edge>
    <edge id=":3_1_8_0" function="internal">
        <lane id=":3_1_8_0_0" index="0" speed="13.40" length="0.10" shape="198.83,101.17 198.83,101.17"/>
    </edge>
    <edge id=":3_1_8_1" function="internal">
        <lane id=":3_1_8_1_0" index="0" speed="13.40" length="0.10" shape="201.17,98.83 201.17,98.83"/>
    </edge>
    <edge id=":3_2_0_0" function="internal">
        <lane id=":3_2_0_0_0" index="0" speed="13.40" length="5.00" shape="248.35,54.75 248.16,53.39 247.57,52.43 246.61,51.84 245.25,51.65"/>
    </edge>
    <edge id=":3_2_0_1" function="internal">
        <lane id=":3_2_0_1_0" index="0" speed="13.40" length="9.50" shape="248.35,54.75 248.35,45.25"/>
    </edge>
    <edge id=":3_2_0_2" function="internal">
        <lane id=":3_2_0_2_0" index="0" speed="13.40" length="5.28" shape="248.35,54.75 248.75,51.95 249.95,49.95 250.05,49.89"/>
    </edge>
    <edge id=":3_2_0_12" function="internal">
        <lane id=":3_2_0_12_0" index="0" speed="13.40" length="5.04" shape="250.05,49.89 251.95,48.75 254.75,48.35"/>
    </edge>
    <edge id=":3_2_0_3" function="internal">
        <lane id=":3_2_0_3_0" index="0" speed="13.40" length="5.00" shape="254.75,51.65 253.39,51.84 252.42,52.42 251.84,53.39 251.65,54.75"/>
    </edge>
    <edge id=":3_2_0_4" function="internal">
        <lane id=":3_2_0_4_0" index="0" speed="13.40" length="9.50" shape="254.75,51.65 245.25,51.65"/>
    </edge>
    <edge id=":3_2_0_5" function="internal">
        <lane id=":3_2_0_5_0" index="0" speed="13.40" length="10.32" shape="254.75,51.65 251.95,51.25 249.95,50.05 248.75,48.05 248.35,45.25"/>
    </edge>
    <edge id=":3_2_0_6" function="internal">
        <lane id=":3_2_0_6_0" index="0" speed="13.40" length="5.00" shape="251.65,45.25 251.84,46.61 252.43,47.57 253.39,48.16 254.75,48.35"/>
    </edge>
    <edge id=":3_2_0_7" function="internal">
        <lane id=":3_2_0_7_0" index="0" speed="13.40" length="9.50" shape="251.65,45.25 251.65,54.75"/>
    </edge>
    <edge id=":3_2_0_8" function="internal">
        <lane id=":3_2_0_8_0" index="0" speed="13.40" length="5.28" shape="251.65,45.25 251.25,48.05 250.05,50.05 249.95,50.11"/>
    </edge>
    <edge id=":3_2_0_13" function="internal">
        <lane id=":3_2_0_13_0" index="0" speed="13.40" length="5.04" shape="249.95,50.11 248.05,51.25 245.25,51.65"/>
    </edge>
    <edge id=":3_2_0_9" function="internal">
        <lane id=":3_2_0_9_0" index="0" speed="13.40" length="5.00" shape="245.25,48.35 246.61,48.16 247.58,47.58 248.16,46.61 248.35,45.25"/>
    </edge>
    <edge id=":3_2_0_10" function="internal">
        <lane id=":3_2_0_10_0" index="0" speed="13.40" length="9.50" shape="245.25,48.35 254.75,48.35"/>
    </edge>
    <edge id=":3_2_0_11" function="internal">
        <lane id=":3_2_0_11_0" index="0" speed="13.40" length="10.32" shape="245.25,48.35 248.05,48.75 250.05,49.95 251.25,51.95 251.65,54.75"/>
    </edge>

    <edge id="1_1_0-1_1_1" from="1_1_0" to="1_1_1" priority="10" type="district.default">
        <lane id="1_1_0-1_1_1_0" index="0" speed="13.40" length="45.25" shape="45.25,151.65 0.00,151.65"/>
    </edge>
    <edge id="1_1_0-1_1_3" from="1_1_0" to="1_1_3" priority="10" type="district.default">
        <lane id="1_1_0-1_1_3_0" index="0" speed="13.40" length="45.25" shape="51.65,154.75 51.65,200.00"/>
    </edge>
    <edge id="1_1_0-1_1_5" from="1_1_0" to="1_1_5" priority="10" type="district.default">
        <lane id="1_1_0-1_1_5_0" index="0" speed="13.40" length="45.25" shape="54.75,148.35 100.00,148.35"/>
    </edge>
    <edge id="1_1_0-1_1_7" from="1_1_0" to="1_1_7" priority="10" type="district.default">
        <lane id="1_1_0-1_1_7_0" index="0" speed="13.40" length="45.25" shape="48.35,145.25 48.35,100.00"/>
    </edge>
    <edge id="1_1_1-1_1_0" from="1_1_1" to="1_1_0" priority="10" type="district.default">
        <lane id="1_1_1-1_1_0_0" index="0" speed="13.40" length="45.25" shape="0.00,148.35 45.25,148.35"/>
    </edge>
    <edge id="1_1_3-1_1_0" from="1_1_3" to="1_1_0" priority="10" type="district.default">
        <lane id="1_1_3-1_1_0_0" index="0" speed="13.40" length="45.25" shape="48.35,200.00 48.35,154.75"/>
    </edge>
    <edge id="1_1_5-1_1_0" from="1_1_5" to="1_1_0" priority="10" type="district.default">
        <lane id="1_1_5-1_1_0_0" index="0" speed="13.40" length="45.25" shape="100.00,151.65 54.75,151.65"/>
    </edge>
    <edge id="1_1_5-2_1_0" from="1_1_5" to="2_1_0" priority="10" type="district.default">
        <lane id="1_1_5-2_1_0_0" index="0" speed="13.40" length="45.25" shape="100.00,148.35 145.25,148.35"/>
    </edge>
    <edge id="1_1_7-1_1_0" from="1_1_7" to="1_1_0" priority="10" type="district.default">
        <lane id="1_1_7-1_1_0_0" index="0" speed="13.40" length="45.25" shape="51.65,100.00 51.65,145.25"/>
    </edge>
    <edge id="2_1_0-1_1_5" from="2_1_0" to="1_1_5" priority="10" type="district.default">
        <lane id="2_1_0-1_1_5_0" index="0" speed="13.40" length="45.25" shape="145.25,151.65 100.00,151.65"/>
    </edge>
    <edge id="2_1_0-2_1_5" from="2_1_0" to="2_1_5" priority="10" type="district.default">
        <lane id="2_1_0-2_1_5_0" index="0" speed="13.40" length="45.25" shape="154.75,148.35 200.00,148.35"/>
    </edge>
    <edge id="2_1_0-2_1_7" from="2_1_0" to="2_1_7" priority="10" type="district.default">
        <lane id="2_1_0-2_1_7_0" index="0" speed="13.40" length="45.25" shape="148.35,145.25 148.35,100.00"/>
    </edge>
    <edge id="2_1_5-2_1_0" from="2_1_5" to="2_1_0" priority="10" type="district.default">
        <lane id="2_1_5-2_1_0_0" index="0" speed="13.40" length="45.25" shape="200.00,151.65 154.75,151.65"/>
    </edge>
    <edge id="2_1_5-3_1_0" from="2_1_5" to="3_1_0" priority="10" type="district.default">
        <lane id="2_1_5-3_1_0_0" index="0" speed="13.40" length="40.65" shape="200.00,148.35 240.65,148.35"/>
    </edge>
    <edge id="2_1_7-2_1_0" from="2_1_7" to="2_1_0" priority="10" type="district.default">
        <lane id="2_1_7-2_1_0_0" index="0" speed="13.40" length="45.25" shape="151.65,100.00 151.65,145.25"/>
    </edge>
    <edge id="2_1_7-2_2_0" from="2_1_7" to="2_2_0" priority="10" type="district.default">
        <lane id="2_1_7-2_2_0_0" index="0" speed="13.40" length="40.65" shape="148.35,100.00 148.35,59.35"/>
    </edge>
    <edge id="2_2_0-2_1_7" from="2_2_0" to="2_1_7" priority="10" type="district.default">
        <lane id="2_2_0-2_1_7_0" index="0" speed="13.40" length="40.65" shape="151.65,59.35 151.65,100.00"/>
    </edge>
    <edge id="2_2_0-2_2_1" from="2_2_0" to="2_2_1" priority="10" type="district.default">
        <lane id="2_2_0-2_2_1_0" index="0" speed="13.40" length="45.25" shape="145.25,51.65 100.00,51.65"/>
    </edge>
    <edge id="2_2_0-2_2_5" from="2_2_0" to="2_2_5" priority="10" type="district.default">
        <lane id="2_2_0-2_2_5_0" index="0" speed="13.40" length="40.65" shape="159.35,48.35 200.00,48.35"/>
    </edge>
    <edge id="2_2_0-2_2_7" from="2_2_0" to="2_2_7" priority="10" type="district.default">
        <lane id="2_2_0-2_2_7_0" index="0" speed="13.40" length="45.25" shape="148.35,45.25 148.35,0.00"/>
    </edge>
    <edge id="2_2_0-3_1_8" from="2_2_0" to="3_1_8" priority="10" type="district.default">
        <lane id="2_2_0-3_1_8_0" index="0" speed="13.40" length="61.36" shape="157.78,55.44 201.17,98.83"/>
    </edge>
    <edge id="2_2_1-2_2_0" from="2_2_1" to="2_2_0" priority="10" type="district.default">
        <lane id="2_2_1-2_2_0_0" index="0" speed="13.40" length="45.25" shape="100.00,48.35 145.25,48.35"/>
    </edge>
    <edge id="2_2_5-2_2_0" from="2_2_5" to="2_2_0" priority="10" type="district.default">
        <lane id="2_2_5-2_2_0_0" index="0" speed="13.40" length="40.65" shape="200.00,51.65 159.35,51.65"/>
    </edge>
    <edge id="2_2_5-3_2_0" from="2_2_5" to="3_2_0" priority="10" type="district.default">
        <lane id="2_2_5-3_2_0_0" index="0" speed="13.40" length="45.25" shape="200.00,48.35 245.25,48.35"/>
    </edge>
    <edge id="2_2_7-2_2_0" from="2_2_7" to="2_2_0" priority="10" type="district.default">
        <lane id="2_2_7-2_2_0_0" index="0" speed="13.40" length="45.25" shape="151.65,0.00 151.65,45.25"/>
    </edge>
    <edge id="3_1_0-2_1_5" from="3_1_0" to="2_1_5" priority="10" type="district.default">
        <lane id="3_1_0-2_1_5_0" index="0" speed="13.40" length="40.65" shape="240.65,151.65 200.00,151.65"/>
    </edge>
    <edge id="3_1_0-3_1_3" from="3_1_0" to="3_1_3" priority="10" type="district.default">
        <lane id="3_1_0-3_1_3_0" index="0" speed="13.40" length="45.25" shape="251.65,154.75 251.65,200.00"/>
    </edge>
    <edge id="3_1_0-3_1_5" from="3_1_0" to="3_1_5" priority="10" type="district.default">
        <lane id="3_1_0-3_1_5_0" index="0" speed="13.40" length="45.25" shape="254.75,148.35 300.00,148.35"/>
    </edge>
    <edge id="3_1_0-3_1_7" from="3_1_0" to="3_1_7" priority="10" type="district.default">
        <lane id="3_1_0-3_1_7_0" index="0" speed="13.40" length="40.65" shape="248.35,140.65 248.35,100.00"/>
    </edge>
    <edge id="3_1_0-3_1_8" from="3_1_0" to="3_1_8" priority="10" type="district.default">
        <lane id="3_1_0-3_1_8_0" index="0" speed="13.40" length="61.36" shape="242.22,144.56 198.83,101.17"/>
    </edge>
    <edge id="3_1_3-3_1_0" from="3_1_3" to="3_1_0" priority="10" type="district.default">
        <lane id="3_1_3-3_1_0_0" index="0" speed="13.40" length="45.25" shape="248.35,200.00 248.35,154.75"/>
    </edge>
    <edge id="3_1_5-3_1_0" from="3_1_5" to="3_1_0" priority="10" type="district.default">
        <lane id="3_1_5-3_1_0_0" index="0" speed="13.40" length="45.25" shape="300.00,151.65 254.75,151.65"/>
    </edge>
    <edge id="3_1_7-3_1_0" from="3_1_7" to="3_1_0" priority="10" type="district.default">
        <lane id="3_1_7-3_1_0_0" index="0" speed="13.40" length="40.65" shape="251.65,100.00 251.65,140.65"/>
    </edge>
    <edge id="3_1_7-3_2_0" from="3_1_7" to="3_2_0" priority="10" type="district.default">
        <lane id="3_1_7-3_2_0_0" index="0" speed="13.40" length="45.25" shape="248.35,100.00 248.35,54.75"/>
    </edge>
    <edge id="3_1_8-2_2_0" from="3_1_8" to="2_2_0" priority="10" type="district.default">
        <lane id="3_1_8-2_2_0_0" index="0" speed="13.40" length="61.36" shape="198.83,101.17 155.44,57.78"/>
    </edge>
    <edge id="3_1_8-3_1_0" from="3_1_8" to="3_1_0" priority="10" type="district.default">
        <lane id="3_1_8-3_1_0_0" index="0" speed="13.40" length="61.36" shape="201.17,98.83 244.56,142.22"/>
    </edge>
    <edge id="3_2_0-2_2_5" from="3_2_0" to="2_2_5" priority="10" type="district.default">
        <lane id="3_2_0-2_2_5_0" index="0" speed="13.40" length="45.25" shape="245.25,51.65 200.00,51.65"/>
    </edge>
    <edge id="3_2_0-3_1_7" from="3_2_0" to="3_1_7" priority="10" type="district.default">
        <lane id="3_2_0-3_1_7_0" index="0" speed="13.40" length="45.25" shape="251.65,54.75 251.65,100.00"/>
    </edge>
    <edge id="3_2_0-3_2_5" from="3_2_0" to="3_2_5" priority="10" type="district.default">
        <lane id="3_2_0-3_2_5_0" index="0" speed="13.40" length="45.25" shape="254.75,48.35 300.00,48.35"/>
    </edge>
    <edge id="3_2_0-3_2_7" from="3_2_0" to="3_2_7" priority="10" type="district.default">
        <lane id="3_2_0-3_2_7_0" index="0" speed="13.40" length="45.25" shape="248.35,45.25 248.35,0.00"/>
    </edge>
    <edge id="3_2_5-3_2_0" from="3_2_5" to="3_2_0" priority="10" type="district.default">
        <lane id="3_2_5-3_2_0_0" index="0" speed="13.40" length="45.25" shape="300.00,51.65 254.75,51.65"/>
    </edge>
    <edge id="3_2_7-3_2_0" from="3_2_7" to="3_2_0" priority="10" type="district.default">
        <lane id="3_2_7-3_2_0_0" index="0" speed="13.40" length="45.25" shape="251.65,0.00 251.65,45.25"/>
    </edge>

    <tlLogic id="2_2_0" type="static" programID="0" offset="0">
        <phase duration="18" state="GGggrrrrrrrrGGGgrrrr"/>
        <phase duration="4" state="yyggrrrrrrrryyygrrrr"/>
        <phase duration="6" state="rrGGrrrrrrrrrrrGrrrr"/>
        <phase duration="4" state="rryyrrrrrrrrrrryrrrr"/>
        <phase duration="20" state="rrrrGGggrrrrrrrrGGGg"/>
        <phase duration="4" state="rrrryyggrrrrrrrryyyg"/>
        <phase duration="6" state="rrrrrrGGrrrrrrrrrrrG"/>
        <phase duration="4" state="rrrrrryyrrrrrrrrrrry"/>
        <phase duration="20" state="rrrrrrrrGGGGGrrrrrrr"/>
        <phase duration="4" state="rrrrrrrryyyyyrrrrrrr"/>
    </tlLogic>
    <tlLogic id="3_1_0" type="static" programID="0" offset="0">
        <phase duration="18" state="GGGgrrrrGGggrrrrrrrr"/>
        <phase duration="4" state="yyygrrrryyggrrrrrrrr"/>
        <phase duration="6" state="rrrGrrrrrrGGrrrrrrrr"/>
        <phase duration="4" state="rrryrrrrrryyrrrrrrrr"/>
        <phase duration="20" state="rrrrGGggrrrrrrrrGGGg"/>
        <phase duration="4" state="rrrryyggrrrrrrrryyyg"/>
        <phase duration="6" state="rrrrrrGGrrrrrrrrrrrG"/>
        <phase duration="4" state="rrrrrryyrrrrrrrrrrry"/>
        <phase duration="20" state="rrrrrrrrrrrrGGGGGrrr"/>
        <phase duration="4" state="rrrrrrrrrrrryyyyyrrr"/>
    </tlLogic>
