<?xml version="1.0" encoding="UTF-8"?>
<edges xmlns:xsi="http://www.w3.org/2001/XMLSchema-instance" xsi:noNamespaceSchemaLocation="http://sumo.dlr.de/xsd/edges_file.xsd">
	<edge id="1_1_1-1_1_0" from="1_1_1" to="1_1_0" />
	<edge id="1_1_0-1_1_1" from="1_1_0" to="1_1_1" />
	<edge id="1_1_3-1_1_0" from="1_1_3" to="1_1_0" />
	<edge id="1_1_0-1_1_3" from="1_1_0" to="1_1_3" />
	<edge id="1_1_5-1_1_0" from="1_1_5" to="1_1_0" />
	<edge id="1_1_0-1_1_5" from="1_1_0" to="1_1_5" />
<!--Generated by District-->
</edges>
