<?xml version="1.0" encoding="UTF-8"?>

<!-- generated on Fri Jun  2 15:39:27 2017 by SUMO netconvert Version 0.30.0
<?xml version="1.0" encoding="UTF-8"?>

<configuration xmlns:xsi="http://www.w3.org/2001/XMLSchema-instance" xsi:noNamespaceSchemaLocation="http://sumo.dlr.de/xsd/netconvertConfiguration.xsd">

    <input>
        <node-files value="model.nod.xml"/>
        <edge-files value="model.edg.xml"/>
    </input>

    <output>
        <output-file value="model.net.xml"/>
    </output>

    <report>
        <verbose value="true"/>
    </report>

</configuration>
-->

<net version="0.27" xmlns:xsi="http://www.w3.org/2001/XMLSchema-instance" xsi:noNamespaceSchemaLocation="http://sumo.dlr.de/xsd/net_file.xsd">

    <location netOffset="0.00,50.00" convBoundary="0.00,0.00,100.00,50.00" origBoundary="0.00,-50.00,100.00,0.00" projParameter="!"/>

    <edge id=":1_1_0_0" function="internal">
        <lane id=":1_1_0_0_0" index="0" speed="13.90" length="5.00" shape="48.35,4.75 48.16,3.39 47.58,2.43 46.61,1.84 45.25,1.65"/>
    </edge>
    <edge id=":1_1_0_1" function="internal">
        <lane id=":1_1_0_1_0" index="0" speed="13.90" length="10.32" shape="48.35,4.75 48.75,1.95 49.95,-0.05 51.95,-1.25 54.75,-1.65"/>
    </edge>
    <edge id=":1_1_0_2" function="internal">
        <lane id=":1_1_0_2_0" index="0" speed="13.90" length="2.69" shape="48.35,4.75 49.18,3.51 50.00,3.10 50.25,3.23"/>
    </edge>
    <edge id=":1_1_0_9" function="internal">
        <lane id=":1_1_0_9_0" index="0" speed="13.90" length="2.13" shape="50.25,3.23 50.83,3.51 51.65,4.75"/>
    </edge>
    <edge id=":1_1_0_3" function="internal">
        <lane id=":1_1_0_3_0" index="0" speed="13.90" length="5.00" shape="54.75,1.65 53.39,1.84 52.43,2.43 51.84,3.39 51.65,4.75"/>
    </edge>
    <edge id=":1_1_0_4" function="internal">
        <lane id=":1_1_0_4_0" index="0" speed="13.90" length="9.50" shape="54.75,1.65 45.25,1.65"/>
    </edge>
    <edge id=":1_1_0_5" function="internal">
        <lane id=":1_1_0_5_0" index="0" speed="13.90" length="2.41" shape="54.75,1.65 53.51,0.83 53.10,0.00"/>
    </edge>
    <edge id=":1_1_0_10" function="internal">
        <lane id=":1_1_0_10_0" index="0" speed="13.90" length="2.41" shape="53.10,0.00 53.51,-0.83 54.75,-1.65"/>
    </edge>
    <edge id=":1_1_0_6" function="internal">
        <lane id=":1_1_0_6_0" index="0" speed="13.90" length="9.50" shape="45.25,-1.65 54.75,-1.65"/>
    </edge>
    <edge id=":1_1_0_7" function="internal">
        <lane id=":1_1_0_7_0" index="0" speed="13.90" length="5.28" shape="45.25,-1.65 48.05,-1.25 50.05,-0.05 50.11,0.05"/>
    </edge>
    <edge id=":1_1_0_8" function="internal">
        <lane id=":1_1_0_8_0" index="0" speed="13.90" length="2.41" shape="45.25,-1.65 46.49,-0.83 46.90,0.00"/>
    </edge>
    <edge id=":1_1_0_11" function="internal">
        <lane id=":1_1_0_11_0" index="0" speed="13.90" length="5.04" shape="50.11,0.05 51.25,1.95 51.65,4.75"/>
    </edge>
    <edge id=":1_1_0_12" function="internal">
        <lane id=":1_1_0_12_0" index="0" speed="13.90" length="2.41" shape="46.90,0.00 46.49,0.83 45.25,1.65"/>
    </edge>
    <edge id=":1_1_1_0" function="internal">
        <lane id=":1_1_1_0_0" index="0" speed="13.90" length="4.82" shape="0.00,1.65 -1.24,0.83 -1.65,0.00 -1.24,-0.83 0.00,-1.65"/>
    </edge>
    <edge id=":1_1_3_0" function="internal">
        <lane id=":1_1_3_0_0" index="0" speed="13.90" length="4.82" shape="51.65,50.00 50.82,51.24 50.00,51.65 49.17,51.24 48.35,50.00"/>
    </edge>
    <edge id=":1_1_5_0" function="internal">
        <lane id=":1_1_5_0_0" index="0" speed="13.90" length="4.82" shape="100.00,-1.65 101.24,-0.83 101.65,0.00 101.24,0.83 100.00,1.65"/>
    </edge>

    <edge id="1_1_0-1_1_1" from="1_1_0" to="1_1_1" priority="-1">
        <lane id="1_1_0-1_1_1_0" index="0" speed="13.90" length="45.25" shape="45.25,1.65 0.00,1.65"/>
    </edge>
    <edge id="1_1_0-1_1_3" from="1_1_0" to="1_1_3" priority="-1">
        <lane id="1_1_0-1_1_3_0" index="0" speed="13.90" length="45.25" shape="51.65,4.75 51.65,50.00"/>
    </edge>
    <edge id="1_1_0-1_1_5" from="1_1_0" to="1_1_5" priority="-1">
        <lane id="1_1_0-1_1_5_0" index="0" speed="13.90" length="45.25" shape="54.75,-1.65 100.00,-1.65"/>
    </edge>
    <edge id="1_1_1-1_1_0" from="1_1_1" to="1_1_0" priority="-1">
        <lane id="1_1_1-1_1_0_0" index="0" speed="13.90" length="45.25" shape="0.00,-1.65 45.25,-1.65"/>
    </edge>
    <edge id="1_1_3-1_1_0" from="1_1_3" to="1_1_0" priority="-1">
        <lane id="1_1_3-1_1_0_0" index="0" speed="13.90" length="45.25" shape="48.35,50.00 48.35,4.75"/>
    </edge>
    <edge id="1_1_5-1_1_0" from="1_1_5" to="1_1_0" priority="-1">
        <lane id="1_1_5-1_1_0_0" index="0" speed="13.90" length="45.25" shape="100.00,1.65 54.75,1.65"/>
    </edge>

    <tlLogic id="1_1_0" type="static" programID="0" offset="0">
        <phase duration="36" state="rrrGGgGgg"/>
        <phase duration="4" state="rrryygygg"/>
        <phase duration="6" state="rrrrrGrGG"/>
        <phase duration="4" state="rrrrryryy"/>
        <phase duration="36" state="GGgGrrrrr"/>
        <phase duration="4" state="yyyyrrrrr"/>
    </tlLogic>

    <junction id="1_1_0" type="traffic_light" x="50.00" y="0.00" incLanes="1_1_3-1_1_0_0 1_1_5-1_1_0_0 1_1_1-1_1_0_0" intLanes=":1_1_0_0_0 :1_1_0_1_0 :1_1_0_9_0 :1_1_0_3_0 :1_1_0_4_0 :1_1_0_10_0 :1_1_0_6_0 :1_1_0_11_0 :1_1_0_12_0" shape="46.75,4.75 53.25,4.75 54.75,3.25 54.75,-3.25 45.25,-3.25 45.25,3.25">
        <request index="0" response="000010000" foes="100010000" cont="0"/>
        <request index="1" response="011010000" foes="011110000" cont="0"/>
        <request index="2" response="010001000" foes="010001000" cont="1"/>
        <request index="3" response="000000000" foes="010000100" cont="0"/>
        <request index="4" response="000000000" foes="110000011" cont="0"/>
        <request index="5" response="001000010" foes="001000010" cont="1"/>
        <request index="6" response="000000000" foes="000100010" cont="0"/>
        <request index="7" response="000011000" foes="000011110" cont="1"/>
        <request index="8" response="000010001" foes="000010001" cont="1"/>
    </junction>
    <junction id="1_1_1" type="priority" x="0.00" y="0.00" incLanes="1_1_0-1_1_1_0" intLanes=":1_1_1_0_0" shape="0.00,-0.05 0.00,3.25 0.00,0.05">
        <request index="0" response="0" foes="0" cont="0"/>
    </junction>
    <junction id="1_1_3" type="priority" x="50.00" y="50.00" incLanes="1_1_0-1_1_3_0" intLanes=":1_1_3_0_0" shape="49.95,50.00 53.25,50.00 50.05,50.00">
        <request index="0" response="0" foes="0" cont="0"/>
    </junction>
    <junction id="1_1_5" type="priority" x="100.00" y="0.00" incLanes="1_1_0-1_1_5_0" intLanes=":1_1_5_0_0" shape="100.00,0.05 100.00,-3.25 100.00,-0.05">
        <request index="0" response="0" foes="0" cont="0"/>
    </junction>

    <junction id=":1_1_0_9_0" type="internal" x="50.25" y="3.23" incLanes=":1_1_0_2_0 1_1_1-1_1_0_0 1_1_5-1_1_0_0" intLanes=":1_1_0_3_0 :1_1_0_7_0"/>
    <junction id=":1_1_0_10_0" type="internal" x="53.10" y="0.00" incLanes=":1_1_0_5_0 1_1_1-1_1_0_0 1_1_3-1_1_0_0" intLanes=":1_1_0_1_0 :1_1_0_6_0"/>
    <junction id=":1_1_0_11_0" type="internal" x="50.11" y="0.05" incLanes=":1_1_0_7_0 1_1_5-1_1_0_0" intLanes=":1_1_0_1_0 :1_1_0_2_0 :1_1_0_3_0 :1_1_0_4_0"/>
    <junction id=":1_1_0_12_0" type="internal" x="46.90" y="0.00" incLanes=":1_1_0_8_0 1_1_3-1_1_0_0 1_1_5-1_1_0_0" intLanes=":1_1_0_0_0 :1_1_0_4_0"/>

    <connection from="1_1_0-1_1_1" to="1_1_1-1_1_0" fromLane="0" toLane="0" via=":1_1_1_0_0" dir="t" state="M"/>
    <connection from="1_1_0-1_1_3" to="1_1_3-1_1_0" fromLane="0" toLane="0" via=":1_1_3_0_0" dir="t" state="M"/>
    <connection from="1_1_0-1_1_5" to="1_1_5-1_1_0" fromLane="0" toLane="0" via=":1_1_5_0_0" dir="t" state="M"/>
    <connection from="1_1_1-1_1_0" to="1_1_0-1_1_5" fromLane="0" toLane="0" via=":1_1_0_6_0" tl="1_1_0" linkIndex="6" dir="s" state="o"/>
    <connection from="1_1_1-1_1_0" to="1_1_0-1_1_3" fromLane="0" toLane="0" via=":1_1_0_7_0" tl="1_1_0" linkIndex="7" dir="l" state="o"/>
    <connection from="1_1_1-1_1_0" to="1_1_0-1_1_1" fromLane="0" toLane="0" via=":1_1_0_8_0" tl="1_1_0" linkIndex="8" dir="t" state="o"/>
    <connection from="1_1_3-1_1_0" to="1_1_0-1_1_1" fromLane="0" toLane="0" via=":1_1_0_0_0" tl="1_1_0" linkIndex="0" dir="r" state="o"/>
    <connection from="1_1_3-1_1_0" to="1_1_0-1_1_5" fromLane="0" toLane="0" via=":1_1_0_1_0" tl="1_1_0" linkIndex="1" dir="l" state="o"/>
    <connection from="1_1_3-1_1_0" to="1_1_0-1_1_3" fromLane="0" toLane="0" via=":1_1_0_2_0" tl="1_1_0" linkIndex="2" dir="t" state="o"/>
    <connection from="1_1_5-1_1_0" to="1_1_0-1_1_3" fromLane="0" toLane="0" via=":1_1_0_3_0" tl="1_1_0" linkIndex="3" dir="r" state="o"/>
    <connection from="1_1_5-1_1_0" to="1_1_0-1_1_1" fromLane="0" toLane="0" via=":1_1_0_4_0" tl="1_1_0" linkIndex="4" dir="s" state="o"/>
    <connection from="1_1_5-1_1_0" to="1_1_0-1_1_5" fromLane="0" toLane="0" via=":1_1_0_5_0" tl="1_1_0" linkIndex="5" dir="t" state="o"/>

    <connection from=":1_1_0_0" to="1_1_0-1_1_1" fromLane="0" toLane="0" dir="s" state="M"/>
    <connection from=":1_1_0_1" to="1_1_0-1_1_5" fromLane="0" toLane="0" dir="s" state="M"/>
    <connection from=":1_1_0_2" to="1_1_0-1_1_3" fromLane="0" toLane="0" via=":1_1_0_9_0" dir="s" state="m"/>
    <connection from=":1_1_0_9" to="1_1_0-1_1_3" fromLane="0" toLane="0" dir="s" state="M"/>
    <connection from=":1_1_0_3" to="1_1_0-1_1_3" fromLane="0" toLane="0" dir="s" state="M"/>
    <connection from=":1_1_0_4" to="1_1_0-1_1_1" fromLane="0" toLane="0" dir="s" state="M"/>
    <connection from=":1_1_0_5" to="1_1_0-1_1_5" fromLane="0" toLane="0" via=":1_1_0_10_0" dir="s" state="m"/>
    <connection from=":1_1_0_10" to="1_1_0-1_1_5" fromLane="0" toLane="0" dir="s" state="M"/>
    <connection from=":1_1_0_6" to="1_1_0-1_1_5" fromLane="0" toLane="0" dir="s" state="M"/>
    <connection from=":1_1_0_7" to="1_1_0-1_1_3" fromLane="0" toLane="0" via=":1_1_0_11_0" dir="s" state="m"/>
    <connection from=":1_1_0_11" to="1_1_0-1_1_3" fromLane="0" toLane="0" dir="s" state="M"/>
    <connection from=":1_1_0_8" to="1_1_0-1_1_1" fromLane="0" toLane="0" via=":1_1_0_12_0" dir="s" state="m"/>
    <connection from=":1_1_0_12" to="1_1_0-1_1_1" fromLane="0" toLane="0" dir="s" state="M"/>
    <connection from=":1_1_1_0" to="1_1_1-1_1_0" fromLane="0" toLane="0" dir="s" state="M"/>
    <connection from=":1_1_3_0" to="1_1_3-1_1_0" fromLane="0" toLane="0" dir="s" state="M"/>
    <connection from=":1_1_5_0" to="1_1_5-1_1_0" fromLane="0" toLane="0" dir="s" state="M"/>

</net>
